* NGSPICE file created from tt_um_jnw_wulffern.ext - technology: sky130A

* Replacing the lpe port list (../tech/scripts/fixlpe)
.subckt tt_um_jnw_wulffern VDPWR VGND ui_in<7> ui_in<6> ui_in<5> ui_in<4> ui_in<3> ui_in<2> ui_in<1> ui_in<0>
+ uo_out<7> uo_out<6> uo_out<5> uo_out<4> uo_out<3> uo_out<2> uo_out<1> uo_out<0> uio_in<7> uio_in<6> uio_in<5> uio_in<4> uio_in<3> uio_in<2> uio_in<1> uio_in<0>
+ uio_out<7> uio_out<6> uio_out<5> uio_out<4> uio_out<3> uio_out<2> uio_out<1> uio_out<0> ena clk rst_n uio_oe<7> uio_oe<6> uio_oe<5> uio_oe<4> uio_oe<3> uio_oe<2> uio_oe<1> uio_oe<0>
*.subckt tt_um_jnw_wulffern clk ena rst_n ui_in<0> ui_in<1> ui_in<2> ui_in<3>
*+ ui_in<4> ui_in<5> ui_in<6> ui_in<7> uio_in<0> uio_in<1> uio_in<2> uio_in<3> uio_in<4>
*+ uio_in<5> uio_in<6> uio_in<7> uio_oe<0> uio_oe<1> uio_oe<2> uio_oe<3> uio_oe<4>
*+ uio_oe<5> uio_oe<6> uio_oe<7> uio_out<0> uio_out<1> uio_out<2> uio_out<3> uio_out<4>
*+ uio_out<5> uio_out<6> uio_out<7> uo_out<0> uo_out<1> uo_out<2> uo_out<3> uo_out<4>
*+ uo_out<5> uo_out<6> uo_out<7> VDPWR VGND
X0 VDPWR JNW_GR07_0.x4.x5.G JNW_GR07_0.x4.x5.G VDPWR sky130_fd_pr__pfet_01v8 ad=0.848 pd=4.26 as=0.528 ps=2.26 w=1.6 l=0.94
X1 a_30896_41058# a_31112_39138# VGND sky130_fd_pr__res_high_po w=0.36 l=7.36
X2 JNW_GR07_0.x11.amplifier_rev2_0.x5.D JNW_GR07_0.x11.x.D JNW_GR07_0.x11.amplifier_rev2_0.JNWATR_PCH_4C5F0_14.D JNW_GR07_0.x11.amplifier_rev2_0.x5.D sky130_fd_pr__pfet_01v8 ad=0.848 pd=4.26 as=0.528 ps=2.26 w=1.6 l=0.94
X3 JNW_GR06_0.temp_affected_current_0.OUT JNW_GR06_0.reset VGND VGND sky130_fd_pr__nfet_01v8 ad=0.2784 pd=1.54 as=0.4704 ps=2.9 w=0.96 l=0.22
X4 JNW_GR07_0.x5.XA3.MN1.S JNW_GR07_0.x5.D VGND VGND sky130_fd_pr__nfet_01v8 ad=0.288 pd=1.54 as=0.468 ps=2.84 w=0.9 l=0.16
R0 uio_oe<1> TIE_L sky130_fd_pr__res_generic_m4 w=0.3 l=0.3
X5 a_22634_12778# a_22850_10858# VGND sky130_fd_pr__res_high_po w=0.36 l=7.36
X6 a_24762_5766# a_24546_3846# VGND sky130_fd_pr__res_high_po w=0.36 l=7.36
X7 JNW_GR07_0.CLK JNWTR_BFX1_CV_1.MP1.G VGND VGND sky130_fd_pr__nfet_01v8 ad=0.468 pd=2.84 as=0.288 ps=1.54 w=0.9 l=0.16
X8 a_13856_29258# a_13640_27338# VGND sky130_fd_pr__res_high_po w=0.36 l=7.36
X9 JNW_GR07_0.x9.N a_31112_28338# VGND sky130_fd_pr__res_high_po w=0.36 l=7.36
X10 VGND VGND JNW_GR06_0.temp_affected_current_0.sky130_fd_pr__rf_pnp_05v5_W3p40L3p40_6<0|0>.Emitter sky130_fd_pr__pnp_05v5_W3p40L3p40
**devattr s=462400,2720
X11 VDPWR JNW_GR06_0.temp_affected_current_0.JNWATR_PCH_4C5F0_12.G JNW_GR06_0.temp_affected_current_0.JNWATR_PCH_4C5F0_12.G VDPWR sky130_fd_pr__pfet_01v8 ad=0.848 pd=4.26 as=0.528 ps=2.26 w=1.6 l=0.94
X12 VGND VGND JNW_GR07_0.x11.x7.N sky130_fd_pr__pnp_05v5_W3p40L3p40
**devattr s=462400,2720
X13 JNW_GR07_0.x5.XA7.C JNW_GR07_0.CLK VDPWR VDPWR sky130_fd_pr__pfet_01v8 ad=0.288 pd=1.54 as=0.468 ps=2.84 w=0.9 l=0.16
X14 JNW_GR07_0.x5.XA7.C VDPWR JNW_GR07_0.x5.XA1.MN1.S VGND sky130_fd_pr__nfet_01v8 ad=0.468 pd=2.84 as=0.288 ps=1.54 w=0.9 l=0.16
X15 VDPWR JNW_GR07_0.x11.amplifier_rev2_0.x5.G JNW_GR07_0.x11.amplifier_rev2_0.x5.G VDPWR sky130_fd_pr__pfet_01v8 ad=0.848 pd=4.26 as=0.528 ps=2.26 w=1.6 l=0.94
R1 uio_oe<0> TIE_L sky130_fd_pr__res_generic_m4 w=0.31 l=0.31
X16 VGND VGND JNW_GR06_0.temp_affected_current_0.sky130_fd_pr__rf_pnp_05v5_W3p40L3p40_6<0|0>.Emitter sky130_fd_pr__pnp_05v5_W3p40L3p40
**devattr s=462400,2720
X17 VDPWR JNW_GR06_0.temp_affected_current_0.OTA_0.JNWTR_RPPO16_3.P JNW_GR06_0.temp_affected_current_0.OTA_0.JNWTR_RPPO16_3.P VDPWR sky130_fd_pr__pfet_01v8 ad=0.848 pd=4.26 as=0.528 ps=2.26 w=1.6 l=0.94
X18 a_26056_32858# a_26272_30938# VGND sky130_fd_pr__res_high_po w=0.36 l=7.36
X19 a_3008_9968# a_3224_8048# VGND sky130_fd_pr__res_high_po w=0.36 l=7.36
X20 a_14288_25658# a_14504_23738# VGND sky130_fd_pr__res_high_po w=0.36 l=7.36
X21 JNW_GR06_0.reset JNWTR_BFX1_CV_0.MP1.G VDPWR VDPWR sky130_fd_pr__pfet_01v8 ad=0.468 pd=2.84 as=0.288 ps=1.54 w=0.9 l=0.16
X22 a_22182_9260# a_22398_7340# VGND sky130_fd_pr__res_high_po w=0.36 l=7.36
X23 JNW_GR06_0.temp_affected_current_0.OTA_0.JNWATR_PCH_4C5F0_8.D JNW_GR06_0.temp_affected_current_0.OTA_0.IN+ JNW_GR06_0.temp_affected_current_0.OTA_0.JNWATR_PCH_4C5F0_7.D JNW_GR06_0.temp_affected_current_0.OTA_0.JNWATR_PCH_4C5F0_8.D sky130_fd_pr__pfet_01v8 ad=0.848 pd=4.26 as=0.528 ps=2.26 w=1.6 l=0.94
X24 a_23930_12778# a_24146_10858# VGND sky130_fd_pr__res_high_po w=0.36 l=7.36
X25 VDPWR JNW_GR07_0.x4.x5.G JNW_GR07_0.x4.x5.G VDPWR sky130_fd_pr__pfet_01v8 ad=0.848 pd=4.26 as=0.528 ps=2.26 w=1.6 l=0.94
X26 a_18656_25658# a_18440_23738# VGND sky130_fd_pr__res_high_po w=0.36 l=7.36
X27 JNW_GR06_0.temp_affected_current_0.JNWATR_PCH_4C5F0_13.D JNW_GR06_0.temp_affected_current_0.JNWATR_PCH_4C5F0_13.D VGND VGND sky130_fd_pr__nfet_01v8 ad=0.528 pd=2.26 as=0.848 ps=4.26 w=1.6 l=0.94
X28 a_12128_36458# a_12344_34538# VGND sky130_fd_pr__res_high_po w=0.36 l=7.36
X29 VGND JNW_GR06_0.OTA_0.JNWATR_PCH_4C5F0_7.D JNW_GR06_0.OTA_0.JNWATR_PCH_4C5F0_7.D VGND sky130_fd_pr__nfet_01v8 ad=0.848 pd=4.26 as=0.528 ps=2.26 w=1.6 l=0.94
X30 a_13856_32858# a_14072_30938# VGND sky130_fd_pr__res_high_po w=0.36 l=7.36
X31 JNW_GR07_0.x4.x5.G JNW_GR07_0.x4.x5.G VDPWR VDPWR sky130_fd_pr__pfet_01v8 ad=0.528 pd=2.26 as=0.848 ps=4.26 w=1.6 l=0.94
X32 VDPWR JNW_GR06_0.temp_affected_current_0.JNWATR_PCH_4C5F0_12.G JNW_GR06_0.temp_affected_current_0.JNWATR_PCH_4C5F0_12.G VDPWR sky130_fd_pr__pfet_01v8 ad=0.848 pd=4.26 as=0.528 ps=2.26 w=1.6 l=0.94
X33 a_24330_5766# a_24546_3846# VGND sky130_fd_pr__res_high_po w=0.36 l=7.36
X34 JNW_GR07_0.x5.XA4.MN1.S JNW_GR07_0.x5.XA6.A VGND VGND sky130_fd_pr__nfet_01v8 ad=0.288 pd=1.54 as=0.468 ps=2.84 w=0.9 l=0.16
X35 VGND VGND JNW_GR06_0.temp_affected_current_0.sky130_fd_pr__rf_pnp_05v5_W3p40L3p40_6<0|0>.Emitter sky130_fd_pr__pnp_05v5_W3p40L3p40
**devattr s=462400,2720
X36 VDPWR OUT06 JNWTR_BFX1_CV_2.MP1.G VDPWR sky130_fd_pr__pfet_01v8 ad=0.288 pd=1.54 as=0.468 ps=2.84 w=0.9 l=0.16
X37 a_14288_29258# a_14504_27338# VGND sky130_fd_pr__res_high_po w=0.36 l=7.36
X38 JNW_GR06_0.OTA_0.JNWTR_RPPO16_1.P a_21966_7340# VGND sky130_fd_pr__res_high_po w=0.36 l=7.36
X39 VGND a_23382_17352# VGND sky130_fd_pr__res_high_po w=0.36 l=7.36
X40 JNW_GR07_0.x5.XA7.CN JNW_GR07_0.x5.XA7.C VDPWR VDPWR sky130_fd_pr__pfet_01v8 ad=0.468 pd=2.84 as=0.468 ps=2.84 w=0.9 l=0.16
X41 JNW_GR06_0.temp_affected_current_0.OTA_0.JNWATR_PCH_4C5F0_8.D JNW_GR06_0.temp_affected_current_0.sky130_fd_pr__rf_pnp_05v5_W3p40L3p40_6<1|1>.Emitter JNW_GR06_0.temp_affected_current_0.OTA_0.OUT JNW_GR06_0.temp_affected_current_0.OTA_0.JNWATR_PCH_4C5F0_8.D sky130_fd_pr__pfet_01v8 ad=0.848 pd=4.26 as=0.528 ps=2.26 w=1.6 l=0.94
X42 VGND JNW_GR06_0.temp_affected_current_0.JNWATR_PCH_4C5F0_13.D JNW_GR06_0.temp_affected_current_0.JNWATR_PCH_4C5F0_13.D VGND sky130_fd_pr__nfet_01v8 ad=0.848 pd=4.26 as=0.528 ps=2.26 w=1.6 l=0.94
X43 a_11696_25658# a_11912_23738# VGND sky130_fd_pr__res_high_po w=0.36 l=7.36
X44 a_3008_9968# a_2792_8048# VGND sky130_fd_pr__res_high_po w=0.36 l=7.36
X45 a_16906_9002# a_17122_7082# VGND sky130_fd_pr__res_high_po w=0.36 l=7.36
X46 JNW_GR06_0.temp_affected_current_0.JNWATR_PCH_4C5F0_13.D JNW_GR06_0.temp_affected_current_0.JNWATR_PCH_4C5F0_13.D VGND VGND sky130_fd_pr__nfet_01v8 ad=0.528 pd=2.26 as=0.848 ps=4.26 w=1.6 l=0.94
X47 a_2596_13486# a_2812_11566# VGND sky130_fd_pr__res_high_po w=0.36 l=7.36
X48 a_19088_25658# a_19304_23738# VGND sky130_fd_pr__res_high_po w=0.36 l=7.36
X49 JNW_GR07_0.x5.QN JNW_GR07_0.x5.XA7.C JNW_GR07_0.x5.XA6.MP1.S VDPWR sky130_fd_pr__pfet_01v8 ad=0.468 pd=2.84 as=0.288 ps=1.54 w=0.9 l=0.16
X50 a_30896_33858# a_30680_31938# VGND sky130_fd_pr__res_high_po w=0.36 l=7.36
X51 JNW_GR06_0.JNWTR_RPPO4_2.N a_20832_17336# VGND sky130_fd_pr__res_high_po w=0.36 l=7.36
X52 VGND JNW_GR07_0.x11.I_OUT sky130_fd_pr__cap_mim_m3_1 l=5 w=5
X53 JNW_GR07_0.x11.amplifier_rev2_0.JNWATR_PCH_4C5F0_14.D JNW_GR07_0.x11.x.D JNW_GR07_0.x11.amplifier_rev2_0.x5.D JNW_GR07_0.x11.amplifier_rev2_0.x5.D sky130_fd_pr__pfet_01v8 ad=0.528 pd=2.26 as=0.848 ps=4.26 w=1.6 l=0.94
X54 JNW_GR06_0.OTA_0.IN- a_22950_17352# VGND sky130_fd_pr__res_high_po w=0.36 l=7.36
X55 JNW_GR07_0.x11.amplifier_rev2_0.x4.P a_11480_30938# VGND sky130_fd_pr__res_high_po w=0.36 l=7.36
X56 JNW_GR07_0.x11.amplifier_rev2_0.x5.G JNW_GR07_0.x11.amplifier_rev2_0.x5.G VDPWR VDPWR sky130_fd_pr__pfet_01v8 ad=0.528 pd=2.26 as=0.848 ps=4.26 w=1.6 l=0.94
X57 JNWTR_IVX1_CV_0.Y JNW_GR06_0.reset VGND VGND sky130_fd_pr__nfet_01v8 ad=0.468 pd=2.84 as=0.468 ps=2.84 w=0.9 l=0.16
X58 JNW_GR06_0.OTA_0.JNWTR_RPPO16_3.P JNW_GR06_0.OTA_0.JNWTR_RPPO16_3.P VDPWR VDPWR sky130_fd_pr__pfet_01v8 ad=0.528 pd=2.26 as=0.848 ps=4.26 w=1.6 l=0.94
X59 a_23034_5766# a_23250_3846# VGND sky130_fd_pr__res_high_po w=0.36 l=7.36
X60 JNW_GR07_0.x11.amplifier_rev2_0.x5.G JNW_GR07_0.x11.amplifier_rev2_0.x5.G VDPWR VDPWR sky130_fd_pr__pfet_01v8 ad=0.528 pd=2.26 as=0.848 ps=4.26 w=1.6 l=0.94
X61 JNW_GR07_0.x4.VOUT JNW_GR07_0.x9.N JNW_GR07_0.x4.x5.D JNW_GR07_0.x4.x5.D sky130_fd_pr__pfet_01v8 ad=0.528 pd=2.26 as=0.848 ps=4.26 w=1.6 l=0.94
X62 a_2564_6474# a_2780_4554# VGND sky130_fd_pr__res_high_po w=0.36 l=7.36
X63 a_26056_36458# a_26272_34538# VGND sky130_fd_pr__res_high_po w=0.36 l=7.36
X64 JNW_GR06_0.temp_affected_current_0.OTA_0.JNWTR_RPPO16_1.P a_1496_8048# VGND sky130_fd_pr__res_high_po w=0.36 l=7.36
X65 JNW_GR07_0.x4.x5.D JNW_GR07_0.x4.x5.G VDPWR VDPWR sky130_fd_pr__pfet_01v8 ad=0.528 pd=2.26 as=0.848 ps=4.26 w=1.6 l=0.94
X66 a_12992_25658# a_12776_23738# VGND sky130_fd_pr__res_high_po w=0.36 l=7.36
X67 JNW_GR06_0.temp_affected_current_0.sky130_fd_pr__rf_pnp_05v5_W3p40L3p40_6<1|1>.Emitter JNW_GR06_0.temp_affected_current_0.OTA_0.OUT VDPWR VDPWR sky130_fd_pr__pfet_01v8 ad=0.528 pd=2.26 as=0.848 ps=4.26 w=1.6 l=0.94
X68 VDPWR JNW_GR07_0.x4.x5.G JNW_GR07_0.x4.x5.G VDPWR sky130_fd_pr__pfet_01v8 ad=0.848 pd=4.26 as=0.528 ps=2.26 w=1.6 l=0.94
X69 a_3892_13486# a_3676_11566# VGND sky130_fd_pr__res_high_po w=0.36 l=7.36
X70 a_12992_25658# a_13208_23738# VGND sky130_fd_pr__res_high_po w=0.36 l=7.36
X71 a_11696_29258# a_11912_27338# VGND sky130_fd_pr__res_high_po w=0.36 l=7.36
X72 JNW_GR06_0.temp_affected_current_0.JNWATR_PCH_4C5F0_13.D JNW_GR06_0.temp_affected_current_0.OTA_0.OUT VDPWR VDPWR sky130_fd_pr__pfet_01v8 ad=0.528 pd=2.26 as=0.848 ps=4.26 w=1.6 l=0.94
X73 JNW_GR07_0.x4.x5.D JNW_GR07_0.x11.I_OUT JNW_GR07_0.x4.JNWATR_PCH_4C5F0_14.D JNW_GR07_0.x4.x5.D sky130_fd_pr__pfet_01v8 ad=0.848 pd=4.26 as=0.528 ps=2.26 w=1.6 l=0.94
X74 a_3892_13486# a_4108_11566# VGND sky130_fd_pr__res_high_po w=0.36 l=7.36
X75 JNW_GR06_0.temp_affected_current_0.OTA_0.OUT JNW_GR06_0.temp_affected_current_0.sky130_fd_pr__rf_pnp_05v5_W3p40L3p40_6<1|1>.Emitter JNW_GR06_0.temp_affected_current_0.OTA_0.JNWATR_PCH_4C5F0_8.D JNW_GR06_0.temp_affected_current_0.OTA_0.JNWATR_PCH_4C5F0_8.D sky130_fd_pr__pfet_01v8 ad=0.528 pd=2.26 as=0.848 ps=4.26 w=1.6 l=0.94
X76 JNW_GR07_0.x11.amplifier_rev2_0.JNWATR_PCH_4C5F0_14.D JNW_GR07_0.x11.amplifier_rev2_0.JNWATR_PCH_4C5F0_14.D VGND VGND sky130_fd_pr__nfet_01v8 ad=0.528 pd=2.26 as=0.848 ps=4.26 w=1.6 l=0.94
X77 a_13856_36458# a_14072_34538# VGND sky130_fd_pr__res_high_po w=0.36 l=7.36
X78 JNW_GR06_0.temp_affected_current_0.JNWATR_PCH_4C5F0_12.G JNW_GR06_0.temp_affected_current_0.JNWATR_PCH_4C5F0_12.G VDPWR VDPWR sky130_fd_pr__pfet_01v8 ad=0.528 pd=2.26 as=0.848 ps=4.26 w=1.6 l=0.94
X79 JNW_GR07_0.x4.VOUT JNW_GR07_0.x4.JNWATR_PCH_4C5F0_14.D VGND VGND sky130_fd_pr__nfet_01v8 ad=0.528 pd=2.26 as=0.848 ps=4.26 w=1.6 l=0.94
X80 JNW_GR07_0.x5.XA7.MP2.S JNW_GR07_0.PWM JNW_GR07_0.x5.XA7.MN2.D VGND sky130_fd_pr__nfet_01v8 ad=0.288 pd=1.54 as=0.288 ps=1.54 w=0.9 l=0.16
X81 VGND VGND JNW_GR07_0.x11.x7.N sky130_fd_pr__pnp_05v5_W3p40L3p40
**devattr s=462400,2720
X82 JNW_GR07_0.x11.I_OUT JNW_GR07_0.PWM VGND VGND sky130_fd_pr__nfet_01v8 ad=0.2784 pd=1.54 as=0.4704 ps=2.9 w=0.96 l=0.22
X83 JNW_GR07_0.x11.amplifier_rev2_0.x5.G JNW_GR07_0.x11.amplifier_rev2_0.x5.G VDPWR VDPWR sky130_fd_pr__pfet_01v8 ad=0.528 pd=2.26 as=0.848 ps=4.26 w=1.6 l=0.94
X84 a_22202_12778# a_21986_10858# VGND sky130_fd_pr__res_high_po w=0.36 l=7.36
X85 a_16496_25658# a_16712_23738# VGND sky130_fd_pr__res_high_po w=0.36 l=7.36
X86 VDPWR JNW_GR07_0.x11.amplifier_rev2_0.x5.G JNW_GR07_0.x11.amplifier_rev2_0.x5.G VDPWR sky130_fd_pr__pfet_01v8 ad=0.848 pd=4.26 as=0.528 ps=2.26 w=1.6 l=0.94
X87 JNW_GR06_0.temp_affected_current_0.JNWATR_PCH_4C5F0_12.G JNW_GR06_0.temp_affected_current_0.JNWATR_PCH_4C5F0_12.G VDPWR VDPWR sky130_fd_pr__pfet_01v8 ad=0.528 pd=2.26 as=0.848 ps=4.26 w=1.6 l=0.94
X88 a_14288_25658# a_14072_23738# VGND sky130_fd_pr__res_high_po w=0.36 l=7.36
X89 a_12992_29258# a_12776_27338# VGND sky130_fd_pr__res_high_po w=0.36 l=7.36
X90 JNW_GR07_0.x5.D JNW_GR07_0.x3.MP1.G VDPWR VDPWR sky130_fd_pr__pfet_01v8 ad=0.468 pd=2.84 as=0.288 ps=1.54 w=0.9 l=0.16
X91 VDPWR JNW_GR07_0.x4.x5.G JNW_GR07_0.x4.x5.D VDPWR sky130_fd_pr__pfet_01v8 ad=0.848 pd=4.26 as=0.528 ps=2.26 w=1.6 l=0.94
X92 VDPWR JNW_GR07_0.x11.amplifier_rev2_0.x5.G JNW_GR07_0.x11.amplifier_rev2_0.x5.G VDPWR sky130_fd_pr__pfet_01v8 ad=0.848 pd=4.26 as=0.528 ps=2.26 w=1.6 l=0.94
X93 a_12992_29258# a_13208_27338# VGND sky130_fd_pr__res_high_po w=0.36 l=7.36
X94 VDPWR JNW_GR07_0.x4.x5.G JNW_GR07_0.x4.x5.G VDPWR sky130_fd_pr__pfet_01v8 ad=0.848 pd=4.26 as=0.528 ps=2.26 w=1.6 l=0.94
X95 JNW_GR06_0.OTA_0.JNWATR_PCH_4C5F0_7.D JNW_GR06_0.temp_affected_current_0.OUT JNW_GR06_0.OTA_0.JNWATR_PCH_4C5F0_8.D JNW_GR06_0.OTA_0.JNWATR_PCH_4C5F0_8.D sky130_fd_pr__pfet_01v8 ad=0.528 pd=2.26 as=0.848 ps=4.26 w=1.6 l=0.94
X96 a_23034_5766# a_22818_3846# VGND sky130_fd_pr__res_high_po w=0.36 l=7.36
X97 JNW_GR07_0.x11.amplifier_rev2_0.JNWATR_PCH_4C5F0_14.D JNW_GR07_0.x11.amplifier_rev2_0.JNWATR_PCH_4C5F0_14.D VGND VGND sky130_fd_pr__nfet_01v8 ad=0.528 pd=2.26 as=0.848 ps=4.26 w=1.6 l=0.94
X98 VDPWR ui_in<0> JNWTR_BFX1_CV_0.MP1.G VDPWR sky130_fd_pr__pfet_01v8 ad=0.288 pd=1.54 as=0.468 ps=2.84 w=0.9 l=0.16
X99 a_2564_6474# a_2348_4554# VGND sky130_fd_pr__res_high_po w=0.36 l=7.36
X100 a_27352_32858# a_27568_30938# VGND sky130_fd_pr__res_high_po w=0.36 l=7.36
X101 JNW_GR07_0.x5.XA6.A JNW_GR07_0.x5.XA5.A VGND VGND sky130_fd_pr__nfet_01v8 ad=0.468 pd=2.84 as=0.468 ps=2.84 w=0.9 l=0.16
X102 JNW_GR07_0.x4.VOUT JNW_GR07_0.x4.JNWATR_PCH_4C5F0_14.D VGND VGND sky130_fd_pr__nfet_01v8 ad=0.528 pd=2.26 as=0.848 ps=4.26 w=1.6 l=0.94
X103 a_13424_25658# a_13640_23738# VGND sky130_fd_pr__res_high_po w=0.36 l=7.36
X104 a_23066_12778# a_23282_10858# VGND sky130_fd_pr__res_high_po w=0.36 l=7.36
X105 JNWTR_TIEL_CV_0.MP0.G JNWTR_TIEL_CV_0.MP0.G VDPWR VDPWR sky130_fd_pr__pfet_01v8 ad=0.468 pd=2.84 as=0.468 ps=2.84 w=0.9 l=0.16
X106 a_17792_25658# a_17576_23738# VGND sky130_fd_pr__res_high_po w=0.36 l=7.36
X107 a_30896_37458# a_30680_35538# VGND sky130_fd_pr__res_high_po w=0.36 l=7.36
X108 a_4324_13486# a_4540_11566# VGND sky130_fd_pr__res_high_po w=0.36 l=7.36
X109 JNW_GR06_0.temp_affected_current_0.OTA_0.JNWTR_RPPO16_3.N a_1516_11566# VGND sky130_fd_pr__res_high_po w=0.36 l=7.36
X110 a_17792_25658# a_18008_23738# VGND sky130_fd_pr__res_high_po w=0.36 l=7.36
X111 JNW_GR07_0.x11.amplifier_rev2_0.x4.P a_11480_34538# VGND sky130_fd_pr__res_high_po w=0.36 l=7.36
X112 a_18914_19240# a_19130_17320# VGND sky130_fd_pr__res_high_po w=0.36 l=7.36
X113 a_26920_32858# a_26704_30938# VGND sky130_fd_pr__res_high_po w=0.36 l=7.36
X114 a_14288_29258# a_14072_27338# VGND sky130_fd_pr__res_high_po w=0.36 l=7.36
X115 JNW_GR06_0.OTA_0.JNWTR_RPPO16_3.N a_24990_7340# VGND sky130_fd_pr__res_high_po w=0.36 l=7.36
X116 JNW_GR07_0.x5.XA5.A JNW_GR07_0.x5.XA7.CN JNW_GR07_0.x5.XA3.MP1.S VDPWR sky130_fd_pr__pfet_01v8 ad=0.468 pd=2.84 as=0.288 ps=1.54 w=0.9 l=0.16
X117 JNW_GR06_0.temp_affected_current_0.JNWTR_RPPO8_0.N a_15168_7098# VGND sky130_fd_pr__res_high_po w=0.36 l=7.36
X118 a_22602_5766# a_22386_3846# VGND sky130_fd_pr__res_high_po w=0.36 l=7.36
X119 VGND JNW_GR06_0.temp_affected_current_0.JNWATR_PCH_4C5F0_13.D JNW_GR06_0.temp_affected_current_0.JNWATR_PCH_4C5F0_13.D VGND sky130_fd_pr__nfet_01v8 ad=0.848 pd=4.26 as=0.528 ps=2.26 w=1.6 l=0.94
X120 a_11696_25658# a_11480_23738# VGND sky130_fd_pr__res_high_po w=0.36 l=7.36
X121 JNW_GR07_0.PWM JNW_GR07_0.x5.QN VGND VGND sky130_fd_pr__nfet_01v8 ad=0.468 pd=2.84 as=0.468 ps=2.84 w=0.9 l=0.16
X122 JNW_GR06_0.temp_affected_current_0.OTA_0.OUT JNW_GR06_0.temp_affected_current_0.sky130_fd_pr__rf_pnp_05v5_W3p40L3p40_6<1|1>.Emitter JNW_GR06_0.temp_affected_current_0.OTA_0.JNWATR_PCH_4C5F0_8.D JNW_GR06_0.temp_affected_current_0.OTA_0.JNWATR_PCH_4C5F0_8.D sky130_fd_pr__pfet_01v8 ad=0.528 pd=2.26 as=0.848 ps=4.26 w=1.6 l=0.94
X123 VGND a_14504_30938# VGND sky130_fd_pr__res_high_po w=0.36 l=7.36
X124 a_2596_13486# a_2380_11566# VGND sky130_fd_pr__res_high_po w=0.36 l=7.36
X125 a_13424_29258# a_13640_27338# VGND sky130_fd_pr__res_high_po w=0.36 l=7.36
X126 VGND OUT06 uo_out<2> VGND sky130_fd_pr__nfet_01v8 ad=0.468 pd=2.84 as=0.288 ps=1.54 w=0.9 l=0.16
X127 VGND JNW_GR06_0.temp_affected_current_0.JNWATR_PCH_4C5F0_13.D JNW_GR06_0.temp_affected_current_0.JNWATR_PCH_4C5F0_13.D VGND sky130_fd_pr__nfet_01v8 ad=0.848 pd=4.26 as=0.528 ps=2.26 w=1.6 l=0.94
X128 a_30896_30258# a_31112_28338# VGND sky130_fd_pr__res_high_po w=0.36 l=7.36
X129 VDPWR JNW_GR07_0.x11.x.G JNW_GR07_0.x11.x3.D VDPWR sky130_fd_pr__pfet_01v8 ad=0.848 pd=4.26 as=0.528 ps=2.26 w=1.6 l=0.94
X130 a_4304_9968# a_4520_8048# VGND sky130_fd_pr__res_high_po w=0.36 l=7.36
X131 a_19088_25658# a_18872_23738# VGND sky130_fd_pr__res_high_po w=0.36 l=7.36
X132 a_30896_41058# a_30680_39138# VGND sky130_fd_pr__res_high_po w=0.36 l=7.36
X133 a_23478_9260# a_23694_7340# VGND sky130_fd_pr__res_high_po w=0.36 l=7.36
X134 JNW_GR06_0.OTA_0.JNWATR_PCH_4C5F0_8.D JNW_GR06_0.OTA_0.IN- OUT06 JNW_GR06_0.OTA_0.JNWATR_PCH_4C5F0_8.D sky130_fd_pr__pfet_01v8 ad=0.848 pd=4.26 as=0.528 ps=2.26 w=1.6 l=0.94
X135 a_2132_6474# a_2348_4554# VGND sky130_fd_pr__res_high_po w=0.36 l=7.36
X136 a_28216_32858# a_28000_30938# VGND sky130_fd_pr__res_high_po w=0.36 l=7.36
X137 JNW_GR07_0.x11.x.G JNW_GR07_0.x11.x3.D JNW_GR07_0.x11.amplifier_rev2_0.x5.D JNW_GR07_0.x11.amplifier_rev2_0.x5.D sky130_fd_pr__pfet_01v8 ad=0.528 pd=2.26 as=0.848 ps=4.26 w=1.6 l=0.94
X138 JNW_GR07_0.x11.amplifier_rev2_0.x5.G JNW_GR07_0.x11.amplifier_rev2_0.x5.G VDPWR VDPWR sky130_fd_pr__pfet_01v8 ad=0.528 pd=2.26 as=0.848 ps=4.26 w=1.6 l=0.94
X139 VDPWR JNW_GR07_0.x4.x5.G JNW_GR07_0.x4.x5.G VDPWR sky130_fd_pr__pfet_01v8 ad=0.848 pd=4.26 as=0.528 ps=2.26 w=1.6 l=0.94
X140 JNW_GR07_0.x5.XA6.MP1.S JNW_GR07_0.x5.XA6.A VDPWR VDPWR sky130_fd_pr__pfet_01v8 ad=0.288 pd=1.54 as=0.468 ps=2.84 w=0.9 l=0.16
X141 JNW_GR07_0.x11.amplifier_rev2_0.x5.D JNW_GR07_0.x11.amplifier_rev2_0.x5.G VDPWR VDPWR sky130_fd_pr__pfet_01v8 ad=0.528 pd=2.26 as=0.848 ps=4.26 w=1.6 l=0.94
X142 JNW_GR07_0.x4.JNWATR_PCH_4C5F0_14.D JNW_GR07_0.x11.I_OUT JNW_GR07_0.x4.x5.D JNW_GR07_0.x4.x5.D sky130_fd_pr__pfet_01v8 ad=0.528 pd=2.26 as=0.848 ps=4.26 w=1.6 l=0.94
X143 a_14952_9018# a_14736_7098# VGND sky130_fd_pr__res_high_po w=0.36 l=7.36
X144 VDPWR JNW_GR06_0.temp_affected_current_0.OTA_0.JNWTR_RPPO16_3.P JNW_GR06_0.temp_affected_current_0.OTA_0.JNWATR_PCH_4C5F0_8.D VDPWR sky130_fd_pr__pfet_01v8 ad=0.848 pd=4.26 as=0.528 ps=2.26 w=1.6 l=0.94
X145 a_18224_25658# a_18440_23738# VGND sky130_fd_pr__res_high_po w=0.36 l=7.36
X146 JNW_GR07_0.x4.x5.G JNW_GR07_0.x4.x5.G VDPWR VDPWR sky130_fd_pr__pfet_01v8 ad=0.528 pd=2.26 as=0.848 ps=4.26 w=1.6 l=0.94
X147 JNW_GR06_0.temp_affected_current_0.OTA_0.IN+ JNW_GR06_0.temp_affected_current_0.OTA_0.OUT VDPWR VDPWR sky130_fd_pr__pfet_01v8 ad=0.528 pd=2.26 as=0.848 ps=4.26 w=1.6 l=0.94
X148 a_12560_32858# a_12776_30938# VGND sky130_fd_pr__res_high_po w=0.36 l=7.36
X149 VGND VGND JNW_GR07_0.x11.x7.N sky130_fd_pr__pnp_05v5_W3p40L3p40
**devattr s=462400,2720
X150 VDPWR JNW_GR07_0.x4.x5.G JNW_GR07_0.x4.x5.G VDPWR sky130_fd_pr__pfet_01v8 ad=0.848 pd=4.26 as=0.528 ps=2.26 w=1.6 l=0.94
X151 uo_out<0> JNWTR_BFX1_CV_3.MP1.G VDPWR VDPWR sky130_fd_pr__pfet_01v8 ad=0.468 pd=2.84 as=0.288 ps=1.54 w=0.9 l=0.16
X152 a_11696_29258# a_11480_27338# VGND sky130_fd_pr__res_high_po w=0.36 l=7.36
X153 VGND JNW_GR06_0.OTA_0.JNWATR_PCH_4C5F0_7.D OUT06 VGND sky130_fd_pr__nfet_01v8 ad=0.848 pd=4.26 as=0.528 ps=2.26 w=1.6 l=0.94
R2 uio_oe<2> TIE_L sky130_fd_pr__res_generic_m4 w=0.3 l=0.3
X154 a_27352_36458# a_27568_34538# VGND sky130_fd_pr__res_high_po w=0.36 l=7.36
X155 VGND JNW_GR07_0.PWM JNWTR_BFX1_CV_3.MP1.G VGND sky130_fd_pr__nfet_01v8 ad=0.288 pd=1.54 as=0.468 ps=2.84 w=0.9 l=0.16
X156 a_14952_9018# a_15168_7098# VGND sky130_fd_pr__res_high_po w=0.36 l=7.36
X157 VDPWR JNW_GR07_0.x11.x.G JNW_GR07_0.x11.I_OUT VDPWR sky130_fd_pr__pfet_01v8 ad=0.848 pd=4.26 as=0.528 ps=2.26 w=1.6 l=0.94
X158 JNW_GR07_0.x11.x.G JNW_GR07_0.x11.amplifier_rev2_0.JNWATR_PCH_4C5F0_14.D VGND VGND sky130_fd_pr__nfet_01v8 ad=0.528 pd=2.26 as=0.848 ps=4.26 w=1.6 l=0.94
X159 a_1700_6474# a_1916_4554# VGND sky130_fd_pr__res_high_po w=0.36 l=7.36
R3 uio_oe<6> TIE_L sky130_fd_pr__res_generic_m4 w=0.3 l=0.3
X160 a_12128_25658# a_12344_23738# VGND sky130_fd_pr__res_high_po w=0.36 l=7.36
X161 JNW_GR07_0.x4.JNWATR_PCH_4C5F0_14.D JNW_GR07_0.x4.JNWATR_PCH_4C5F0_14.D VGND VGND sky130_fd_pr__nfet_01v8 ad=0.528 pd=2.26 as=0.848 ps=4.26 w=1.6 l=0.94
X162 JNW_GR06_0.temp_affected_current_0.JNWATR_PCH_4C5F0_12.G JNW_GR06_0.temp_affected_current_0.JNWATR_PCH_4C5F0_12.G VDPWR VDPWR sky130_fd_pr__pfet_01v8 ad=0.528 pd=2.26 as=0.848 ps=4.26 w=1.6 l=0.94
X163 a_3028_13486# a_3244_11566# VGND sky130_fd_pr__res_high_po w=0.36 l=7.36
X164 a_16496_25658# a_16280_23738# VGND sky130_fd_pr__res_high_po w=0.36 l=7.36
X165 JNW_GR07_0.x11.amplifier_rev2_0.x5.G JNW_GR07_0.x11.amplifier_rev2_0.x5.G VDPWR VDPWR sky130_fd_pr__pfet_01v8 ad=0.528 pd=2.26 as=0.848 ps=4.26 w=1.6 l=0.94
X166 a_4304_9968# a_4088_8048# VGND sky130_fd_pr__res_high_po w=0.36 l=7.36
X167 a_26920_36458# a_26704_34538# VGND sky130_fd_pr__res_high_po w=0.36 l=7.36
X168 VDPWR JNW_GR07_0.x11.amplifier_rev2_0.x5.G JNW_GR07_0.x11.amplifier_rev2_0.x5.D VDPWR sky130_fd_pr__pfet_01v8 ad=0.848 pd=4.26 as=0.528 ps=2.26 w=1.6 l=0.94
X169 a_23478_9260# a_23262_7340# VGND sky130_fd_pr__res_high_po w=0.36 l=7.36
X170 a_21048_19256# a_21264_17336# VGND sky130_fd_pr__res_high_po w=0.36 l=7.36
X171 uo_out<1> JNWTR_BFX1_CV_2.MP1.G VGND VGND sky130_fd_pr__nfet_01v8 ad=0.468 pd=2.84 as=0.288 ps=1.54 w=0.9 l=0.16
X172 a_25624_32858# a_25408_30938# VGND sky130_fd_pr__res_high_po w=0.36 l=7.36
X173 VDPWR JNW_GR07_0.x4.x5.G JNW_GR07_0.x4.x5.G VDPWR sky130_fd_pr__pfet_01v8 ad=0.848 pd=4.26 as=0.528 ps=2.26 w=1.6 l=0.94
X174 VDPWR JNW_GR06_0.temp_affected_current_0.JNWATR_PCH_4C5F0_12.G JNW_GR06_0.temp_affected_current_0.JNWATR_PCH_4C5F0_12.G VDPWR sky130_fd_pr__pfet_01v8 ad=0.848 pd=4.26 as=0.528 ps=2.26 w=1.6 l=0.94
X175 a_23166_19272# a_23382_17352# VGND sky130_fd_pr__res_high_po w=0.36 l=7.36
X176 JNW_GR07_0.x4.x5.D JNW_GR07_0.x9.N JNW_GR07_0.x4.VOUT JNW_GR07_0.x4.x5.D sky130_fd_pr__pfet_01v8 ad=0.848 pd=4.26 as=0.528 ps=2.26 w=1.6 l=0.94
X177 VDPWR JNW_GR07_0.x4.x5.G JNW_GR07_0.x4.x5.G VDPWR sky130_fd_pr__pfet_01v8 ad=0.848 pd=4.26 as=0.528 ps=2.26 w=1.6 l=0.94
X178 VGND JNW_GR06_0.temp_affected_current_0.JNWATR_PCH_4C5F0_13.D JNW_GR06_0.temp_affected_current_0.JNWATR_PCH_4C5F0_13.D VGND sky130_fd_pr__nfet_01v8 ad=0.848 pd=4.26 as=0.528 ps=2.26 w=1.6 l=0.94
X179 JNW_GR07_0.x11.x.G JNW_GR07_0.x11.amplifier_rev2_0.JNWATR_PCH_4C5F0_14.D VGND VGND sky130_fd_pr__nfet_01v8 ad=0.528 pd=2.26 as=0.848 ps=4.26 w=1.6 l=0.94
X180 JNW_GR06_0.temp_affected_current_0.OTA_0.IN+ a_14736_7098# VGND sky130_fd_pr__res_high_po w=0.36 l=7.36
X181 VDPWR JNW_GR07_0.x4.VOUT JNW_GR07_0.x3.MP1.G VDPWR sky130_fd_pr__pfet_01v8 ad=0.288 pd=1.54 as=0.468 ps=2.84 w=0.9 l=0.16
X182 JNW_GR07_0.x11.amplifier_rev2_0.x5.G a_14504_34538# VGND sky130_fd_pr__res_high_po w=0.36 l=7.36
X183 VDPWR VDPWR JNW_GR07_0.x5.XA7.MP2.S VDPWR sky130_fd_pr__pfet_01v8 ad=0.288 pd=1.54 as=0.468 ps=2.84 w=0.9 l=0.16
X184 JNW_GR07_0.x10.N a_30680_31938# VGND sky130_fd_pr__res_high_po w=0.36 l=7.36
X185 JNW_GR07_0.x4.JNWATR_PCH_4C5F0_14.D JNW_GR07_0.x4.JNWATR_PCH_4C5F0_14.D VGND VGND sky130_fd_pr__nfet_01v8 ad=0.528 pd=2.26 as=0.848 ps=4.26 w=1.6 l=0.94
X186 a_2576_9968# a_2792_8048# VGND sky130_fd_pr__res_high_po w=0.36 l=7.36
X187 a_12128_29258# a_12344_27338# VGND sky130_fd_pr__res_high_po w=0.36 l=7.36
X188 a_13424_32858# a_13208_30938# VGND sky130_fd_pr__res_high_po w=0.36 l=7.36
X189 JNW_GR06_0.temp_affected_current_0.OUT JNW_GR06_0.temp_affected_current_0.JNWATR_PCH_4C5F0_12.G VDPWR VDPWR sky130_fd_pr__pfet_01v8 ad=0.528 pd=2.26 as=0.848 ps=4.26 w=1.6 l=0.94
X190 a_17770_9002# a_17986_7082# VGND sky130_fd_pr__res_high_po w=0.36 l=7.36
X191 JNW_GR06_0.temp_affected_current_0.OTA_0.JNWATR_PCH_4C5F0_7.D JNW_GR06_0.temp_affected_current_0.OTA_0.IN+ JNW_GR06_0.temp_affected_current_0.OTA_0.JNWATR_PCH_4C5F0_8.D JNW_GR06_0.temp_affected_current_0.OTA_0.JNWATR_PCH_4C5F0_8.D sky130_fd_pr__pfet_01v8 ad=0.528 pd=2.26 as=0.848 ps=4.26 w=1.6 l=0.94
X192 JNW_GR06_0.temp_affected_current_0.JNWATR_PCH_4C5F0_13.D JNW_GR06_0.temp_affected_current_0.JNWATR_PCH_4C5F0_13.D VGND VGND sky130_fd_pr__nfet_01v8 ad=0.528 pd=2.26 as=0.848 ps=4.26 w=1.6 l=0.94
X193 VGND VGND JNW_GR06_0.temp_affected_current_0.sky130_fd_pr__rf_pnp_05v5_W3p40L3p40_6<1|1>.Emitter sky130_fd_pr__pnp_05v5_W3p40L3p40
**devattr s=462400,2720
X194 a_28216_36458# a_28000_34538# VGND sky130_fd_pr__res_high_po w=0.36 l=7.36
X195 JNW_GR06_0.OTA_0.JNWATR_PCH_4C5F0_7.D JNW_GR06_0.temp_affected_current_0.OUT JNW_GR06_0.OTA_0.JNWATR_PCH_4C5F0_8.D JNW_GR06_0.OTA_0.JNWATR_PCH_4C5F0_8.D sky130_fd_pr__pfet_01v8 ad=0.528 pd=2.26 as=0.848 ps=4.26 w=1.6 l=0.94
X196 JNW_GR06_0.temp_affected_current_0.JNWATR_PCH_4C5F0_13.D JNW_GR06_0.temp_affected_current_0.JNWATR_PCH_4C5F0_13.D VGND VGND sky130_fd_pr__nfet_01v8 ad=0.528 pd=2.26 as=0.848 ps=4.26 w=1.6 l=0.94
X197 a_4292_6474# a_4076_4554# VGND sky130_fd_pr__res_high_po w=0.36 l=7.36
X198 OUT06 JNW_GR06_0.OTA_0.IN- JNW_GR06_0.OTA_0.JNWATR_PCH_4C5F0_8.D JNW_GR06_0.OTA_0.JNWATR_PCH_4C5F0_8.D sky130_fd_pr__pfet_01v8 ad=0.528 pd=2.26 as=0.848 ps=4.26 w=1.6 l=0.94
X199 JNW_GR06_0.OTA_0.JNWATR_PCH_4C5F0_8.D JNW_GR06_0.OTA_0.JNWTR_RPPO16_3.P VDPWR VDPWR sky130_fd_pr__pfet_01v8 ad=0.528 pd=2.26 as=0.848 ps=4.26 w=1.6 l=0.94
X200 a_24362_12778# a_24578_10858# VGND sky130_fd_pr__res_high_po w=0.36 l=7.36
X201 JNW_GR07_0.x11.I_OUT JNW_GR07_0.PWM VGND VGND sky130_fd_pr__nfet_01v8 ad=0.2784 pd=1.54 as=0.4704 ps=2.9 w=0.96 l=0.22
X202 a_22182_9260# a_21966_7340# VGND sky130_fd_pr__res_high_po w=0.36 l=7.36
X203 a_12560_36458# a_12776_34538# VGND sky130_fd_pr__res_high_po w=0.36 l=7.36
X204 a_16928_25658# a_17144_23738# VGND sky130_fd_pr__res_high_po w=0.36 l=7.36
X205 JNW_GR06_0.temp_affected_current_0.sky130_fd_pr__rf_pnp_05v5_W3p40L3p40_6<0|0>.Emitter a_17986_7082# VGND sky130_fd_pr__res_high_po w=0.36 l=7.36
X206 VGND JNW_GR06_0.temp_affected_current_0.OTA_0.JNWATR_PCH_4C5F0_7.D JNW_GR06_0.temp_affected_current_0.OTA_0.OUT VGND sky130_fd_pr__nfet_01v8 ad=0.848 pd=4.26 as=0.528 ps=2.26 w=1.6 l=0.94
X207 JNW_GR06_0.temp_affected_current_0.JNWATR_PCH_4C5F0_12.G JNW_GR06_0.temp_affected_current_0.JNWATR_PCH_4C5F0_12.G VDPWR VDPWR sky130_fd_pr__pfet_01v8 ad=0.528 pd=2.26 as=0.848 ps=4.26 w=1.6 l=0.94
X208 a_23930_12778# a_23714_10858# VGND sky130_fd_pr__res_high_po w=0.36 l=7.36
X209 JNW_GR07_0.x5.QN JNW_GR07_0.x5.XA7.CN JNW_GR07_0.x5.XA7.MP2.S VDPWR sky130_fd_pr__pfet_01v8 ad=0.468 pd=2.84 as=0.288 ps=1.54 w=0.9 l=0.16
X210 a_24330_5766# a_24114_3846# VGND sky130_fd_pr__res_high_po w=0.36 l=7.36
X211 uo_out<2> JNW_GR06_0.reset VGND VGND sky130_fd_pr__nfet_01v8 ad=0.288 pd=1.54 as=0.468 ps=2.84 w=0.9 l=0.16
X212 a_3860_6474# a_3644_4554# VGND sky130_fd_pr__res_high_po w=0.36 l=7.36
X213 a_2576_9968# a_2360_8048# VGND sky130_fd_pr__res_high_po w=0.36 l=7.36
X214 a_13856_25658# a_14072_23738# VGND sky130_fd_pr__res_high_po w=0.36 l=7.36
X215 JNW_GR07_0.x11.amplifier_rev2_0.x5.G JNW_GR07_0.x11.amplifier_rev2_0.x5.G VDPWR VDPWR sky130_fd_pr__pfet_01v8 ad=0.528 pd=2.26 as=0.848 ps=4.26 w=1.6 l=0.94
X216 JNW_GR07_0.CLK JNWTR_BFX1_CV_1.MP1.G VDPWR VDPWR sky130_fd_pr__pfet_01v8 ad=0.468 pd=2.84 as=0.288 ps=1.54 w=0.9 l=0.16
X217 JNW_GR06_0.temp_affected_current_0.JNWTR_RPPO8_0.N a_16690_7082# VGND sky130_fd_pr__res_high_po w=0.36 l=7.36
X218 VGND JNW_GR06_0.temp_affected_current_0.OTA_0.JNWATR_PCH_4C5F0_7.D JNW_GR06_0.temp_affected_current_0.OTA_0.JNWATR_PCH_4C5F0_7.D VGND sky130_fd_pr__nfet_01v8 ad=0.848 pd=4.26 as=0.528 ps=2.26 w=1.6 l=0.94
X219 JNW_GR06_0.temp_affected_current_0.JNWATR_PCH_4C5F0_13.D JNW_GR06_0.temp_affected_current_0.JNWATR_PCH_4C5F0_13.D VGND VGND sky130_fd_pr__nfet_01v8 ad=0.528 pd=2.26 as=0.848 ps=4.26 w=1.6 l=0.94
X220 VGND VGND JNW_GR07_0.x11.x7.N sky130_fd_pr__pnp_05v5_W3p40L3p40
**devattr s=462400,2720
X221 VGND JNW_GR07_0.x11.x.G sky130_fd_pr__cap_mim_m3_1 l=5 w=5
X222 a_25624_36458# a_25408_34538# VGND sky130_fd_pr__res_high_po w=0.36 l=7.36
X223 VGND clk JNWTR_BFX1_CV_1.MP1.G VGND sky130_fd_pr__nfet_01v8 ad=0.288 pd=1.54 as=0.468 ps=2.84 w=0.9 l=0.16
X224 JNW_GR07_0.x4.x5.G JNW_GR07_0.x4.x5.G VDPWR VDPWR sky130_fd_pr__pfet_01v8 ad=0.528 pd=2.26 as=0.848 ps=4.26 w=1.6 l=0.94
X225 OUT06 JNW_GR06_0.OTA_0.IN- JNW_GR06_0.OTA_0.JNWATR_PCH_4C5F0_8.D JNW_GR06_0.OTA_0.JNWATR_PCH_4C5F0_8.D sky130_fd_pr__pfet_01v8 ad=0.528 pd=2.26 as=0.848 ps=4.26 w=1.6 l=0.94
X226 a_3860_6474# a_4076_4554# VGND sky130_fd_pr__res_high_po w=0.36 l=7.36
X227 JNW_GR06_0.OTA_0.JNWTR_RPPO16_3.N a_21986_10858# VGND sky130_fd_pr__res_high_po w=0.36 l=7.36
X228 a_27352_32858# a_27136_30938# VGND sky130_fd_pr__res_high_po w=0.36 l=7.36
X229 JNW_GR06_0.OTA_0.JNWTR_RPPO16_3.P a_25010_10858# VGND sky130_fd_pr__res_high_po w=0.36 l=7.36
X230 VGND JNW_GR07_0.x11.I_OUT sky130_fd_pr__cap_mim_m3_1 l=5 w=5
X231 JNW_GR07_0.x5.XA1.MN1.S JNW_GR07_0.CLK VGND VGND sky130_fd_pr__nfet_01v8 ad=0.288 pd=1.54 as=0.468 ps=2.84 w=0.9 l=0.16
X232 JNW_GR07_0.x10.N a_30680_35538# VGND sky130_fd_pr__res_high_po w=0.36 l=7.36
X233 a_23898_5766# a_23682_3846# VGND sky130_fd_pr__res_high_po w=0.36 l=7.36