* NGSPICE file created from tt_um_jnw_wulffern.ext - technology: sky130A

* Replacing the lpe port list (../tech/scripts/fixlpe)
.subckt tt_um_jnw_wulffern VDPWR VGND ui_in<7> ui_in<6> ui_in<5> ui_in<4> ui_in<3> ui_in<2> ui_in<1> ui_in<0>
+ uo_out<7> uo_out<6> uo_out<5> uo_out<4> uo_out<3> uo_out<2> uo_out<1> uo_out<0> uio_in<7> uio_in<6> uio_in<5> uio_in<4> uio_in<3> uio_in<2> uio_in<1> uio_in<0>
+ uio_out<7> uio_out<6> uio_out<5> uio_out<4> uio_out<3> uio_out<2> uio_out<1> uio_out<0> ua<7> ua<6> ua<5> ua<4> ua<3> ua<2> ua<1> ua<0> ena clk rst_n
*.subckt tt_um_jnw_wulffern clk ena rst_n ua[0] ua[1] ua[2] ua[3] ua[4] ua[5]
*+ ua[6] ua[7] ui_in[0] ui_in[1] ui_in[2] ui_in[3] ui_in[4] ui_in[5] ui_in[6] ui_in[7]
*+ uio_in[0] uio_in[1] uio_in[2] uio_in[3] uio_in[4] uio_in[5] uio_in[6] uio_in[7]
*+ uio_oe[0] uio_oe[1] uio_oe[2] uio_oe[3] uio_oe[4] uio_oe[5] uio_oe[6] uio_oe[7]
*+ uio_out[0] uio_out[1] uio_out[2] uio_out[3] uio_out[4] uio_out[5] uio_out[6] uio_out[7]
*+ uo_out[0] uo_out[1] uo_out[2] uo_out[3] uo_out[4] uo_out[5] uo_out[6] uo_out[7]
*+ VDPWR VGND
X0 JNW_GR06_0.OTA_0.JNWTR_RPPO16_3.N a_24968_7186# JNW_GR07_0.VSS sky130_fd_pr__res_high_po w=0.36 l=7.36
X1 JNW_GR07_0.x5.XA4.MP1.S JNW_GR07_0.x5.XA6.A JNW_GR07_0.VDD JNW_GR07_0.VDD sky130_fd_pr__pfet_01v8 ad=0.288 pd=1.54 as=0.468 ps=2.84 w=0.9 l=0.16
X2 JNW_GR07_0.VSS JNW_GR07_0.x4.JNWATR_PCH_4C5F0_14.D JNW_GR07_0.x4.JNWATR_PCH_4C5F0_14.D JNW_GR07_0.VSS sky130_fd_pr__nfet_01v8 ad=0.848 pd=4.26 as=0.528 ps=2.26 w=1.6 l=0.94
X3 JNW_GR07_0.x11.amplifier_rev2_0.x5.D JNW_GR07_0.x11.x3.D JNW_GR07_0.x11.x2.A JNW_GR07_0.x11.amplifier_rev2_0.x5.D sky130_fd_pr__pfet_01v8 ad=0.848 pd=4.26 as=0.528 ps=2.26 w=1.6 l=0.94
X4 a_23044_12624# a_23260_10704# JNW_GR07_0.VSS sky130_fd_pr__res_high_po w=0.36 l=7.36
X5 JNW_GR06_0.OTA_0.JNWATR_PCH_4C5F0_8.D JNW_GR06_0.OTA_0.IN- JNW_GR06_0.OUT JNW_GR06_0.OTA_0.JNWATR_PCH_4C5F0_8.D sky130_fd_pr__pfet_01v8 ad=0.848 pd=4.26 as=0.528 ps=2.26 w=1.6 l=0.94
X6 JNW_GR06_0.temp_affected_current_0.OTA_0.JNWATR_PCH_4C5F0_7.D JNW_GR06_0.temp_affected_current_0.OTA_0.IN+ JNW_GR06_0.temp_affected_current_0.OTA_0.JNWATR_PCH_4C5F0_8.D JNW_GR06_0.temp_affected_current_0.OTA_0.JNWATR_PCH_4C5F0_8.D sky130_fd_pr__pfet_01v8 ad=0.528 pd=2.26 as=0.848 ps=4.26 w=1.6 l=0.94
X7 JNW_GR07_0.x11.x7.P a_6208_23758# JNW_GR07_0.VSS sky130_fd_pr__res_high_po w=0.36 l=7.36
X8 a_17316_8848# a_17532_6928# JNW_GR07_0.VSS sky130_fd_pr__res_high_po w=0.36 l=7.36
X9 a_23012_5612# a_22796_3692# JNW_GR07_0.VSS sky130_fd_pr__res_high_po w=0.36 l=7.36
X10 JNW_GR07_0.VSS JNW_GR07_0.VSS JNW_GR06_0.temp_affected_current_0.sky130_fd_pr__rf_pnp_05v5_W3p40L3p40_8.Emitter sky130_fd_pr__pnp_05v5_W3p40L3p40
**devattr s=462400,2720
X11 a_19488_36478# a_19272_34558# JNW_GR07_0.VSS sky130_fd_pr__res_high_po w=0.36 l=7.36
X12 JNW_GR07_0.x11.amplifier_rev2_0.x5.D JNW_GR07_0.x11.x.D JNW_GR07_0.x11.amplifier_rev2_0.JNWATR_PCH_4C5F0_14.D JNW_GR07_0.x11.amplifier_rev2_0.x5.D sky130_fd_pr__pfet_01v8 ad=0.848 pd=4.26 as=0.528 ps=2.26 w=1.6 l=0.94
X13 JNW_GR07_0.VDD JNW_GR07_0.x11.amplifier_rev2_0.x5.G JNW_GR07_0.x11.amplifier_rev2_0.x5.G JNW_GR07_0.VDD sky130_fd_pr__pfet_01v8 ad=0.848 pd=4.26 as=0.528 ps=2.26 w=1.6 l=0.94
X14 a_4264_36478# a_4048_34558# JNW_GR07_0.VSS sky130_fd_pr__res_high_po w=0.36 l=7.36
X15 a_2110_6320# a_2326_4400# JNW_GR07_0.VSS sky130_fd_pr__res_high_po w=0.36 l=7.36
X16 JNW_GR07_0.VSS JNW_GR07_0.VSS JNW_GR07_0.x11.x7.N sky130_fd_pr__pnp_05v5_W3p40L3p40
**devattr s=462400,2720
X17 JNW_GR06_0.temp_affected_current_0.OTA_0.JNWATR_PCH_4C5F0_8.D JNW_GR06_0.temp_affected_current_0.sky130_fd_pr__rf_pnp_05v5_W3p40L3p40_1.Emitter JNW_GR06_0.temp_affected_current_0.OTA_0.OUT JNW_GR06_0.temp_affected_current_0.OTA_0.JNWATR_PCH_4C5F0_8.D sky130_fd_pr__pfet_01v8 ad=0.848 pd=4.26 as=0.528 ps=2.26 w=1.6 l=0.94
X18 JNW_GR06_0.temp_affected_current_0.JNWATR_PCH_4C5F0_12.G JNW_GR06_0.temp_affected_current_0.JNWATR_PCH_4C5F0_12.G JNW_GR06_0.VDD JNW_GR06_0.VDD sky130_fd_pr__pfet_01v8 ad=0.528 pd=2.26 as=0.848 ps=4.26 w=1.6 l=0.94
X19 JNW_GR07_0.x4.x4.P a_20136_34558# JNW_GR07_0.VSS sky130_fd_pr__res_high_po w=0.36 l=7.36
X20 a_24752_9106# a_24536_7186# JNW_GR07_0.VSS sky130_fd_pr__res_high_po w=0.36 l=7.36
X21 JNW_GR07_0.VSS JNW_GR06_0.temp_affected_current_0.JNWATR_PCH_4C5F0_13.D JNW_GR06_0.temp_affected_current_0.JNWATR_PCH_4C5F0_13.D JNW_GR07_0.VSS sky130_fd_pr__nfet_01v8 ad=0.848 pd=4.26 as=0.528 ps=2.26 w=1.6 l=0.94
X22 a_18624_36478# a_18840_34558# JNW_GR07_0.VSS sky130_fd_pr__res_high_po w=0.36 l=7.36
X23 a_17328_32878# a_17544_30958# JNW_GR07_0.VSS sky130_fd_pr__res_high_po w=0.36 l=7.36
X24 JNW_GR07_0.x11.x.D a_6208_27358# JNW_GR07_0.VSS sky130_fd_pr__res_high_po w=0.36 l=7.36
X25 JNW_GR07_0.VSS JNW_GR07_0.x11.amplifier_rev2_0.JNWATR_PCH_4C5F0_14.D JNW_GR07_0.x11.amplifier_rev2_0.JNWATR_PCH_4C5F0_14.D JNW_GR07_0.VSS sky130_fd_pr__nfet_01v8 ad=0.848 pd=4.26 as=0.528 ps=2.26 w=1.6 l=0.94
X26 a_3006_13332# a_3222_11412# JNW_GR07_0.VSS sky130_fd_pr__res_high_po w=0.36 l=7.36
X27 a_22612_12624# a_22828_10704# JNW_GR07_0.VSS sky130_fd_pr__res_high_po w=0.36 l=7.36
X28 a_4282_9814# a_4498_7894# JNW_GR07_0.VSS sky130_fd_pr__res_high_po w=0.36 l=7.36
X29 JNW_GR07_0.x4.VOUT JNW_GR07_0.x9.N JNW_GR07_0.x4.x5.D JNW_GR07_0.x4.x5.D sky130_fd_pr__pfet_01v8 ad=0.528 pd=2.26 as=0.848 ps=4.26 w=1.6 l=0.94
X30 JNW_GR07_0.VDD JNW_GR07_0.x11.amplifier_rev2_0.x5.G JNW_GR07_0.x11.amplifier_rev2_0.x5.G JNW_GR07_0.VDD sky130_fd_pr__pfet_01v8 ad=0.848 pd=4.26 as=0.528 ps=2.26 w=1.6 l=0.94
X31 a_3832_25678# a_3616_23758# JNW_GR07_0.VSS sky130_fd_pr__res_high_po w=0.36 l=7.36
X32 JNW_GR06_0.temp_affected_current_0.JNWATR_PCH_4C5F0_13.D JNW_GR06_0.temp_affected_current_0.JNWATR_PCH_4C5F0_13.D JNW_GR07_0.VSS JNW_GR07_0.VSS sky130_fd_pr__nfet_01v8 ad=0.528 pd=2.26 as=0.848 ps=4.26 w=1.6 l=0.94
X33 JNW_GR07_0.VSS JNW_GR07_0.VSS JNW_GR06_0.temp_affected_current_0.sky130_fd_pr__rf_pnp_05v5_W3p40L3p40_8.Emitter sky130_fd_pr__pnp_05v5_W3p40L3p40
**devattr s=462400,2720
X34 a_17316_8848# a_17100_6928# JNW_GR07_0.VSS sky130_fd_pr__res_high_po w=0.36 l=7.36
X35 JNW_GR07_0.x11.x7.P a_7984_23758# JNW_GR07_0.VSS sky130_fd_pr__res_high_po w=0.36 l=7.36
X36 JNW_GR07_0.x5.XA7.MP1.S JNW_GR07_0.PWM JNW_GR07_0.VDD JNW_GR07_0.VDD sky130_fd_pr__pfet_01v8 ad=0.288 pd=1.54 as=0.288 ps=1.54 w=0.9 l=0.16
X37 JNW_GR07_0.VSS JNW_GR07_0.x11.amplifier_rev2_0.JNWATR_PCH_4C5F0_14.D JNW_GR07_0.x11.amplifier_rev2_0.JNWATR_PCH_4C5F0_14.D JNW_GR07_0.VSS sky130_fd_pr__nfet_01v8 ad=0.848 pd=4.26 as=0.528 ps=2.26 w=1.6 l=0.94
X38 JNW_GR06_0.temp_affected_current_0.OUT JNW_GR06_0.temp_affected_current_0.JNWATR_PCH_4C5F0_12.G JNW_GR06_0.VDD JNW_GR06_0.VDD sky130_fd_pr__pfet_01v8 ad=0.528 pd=2.26 as=0.848 ps=4.26 w=1.6 l=0.94
X39 JNW_GR07_0.VSS JNW_GR07_0.x11.I_OUT sky130_fd_pr__cap_mim_m3_1 l=5 w=5
X40 JNW_GR06_0.temp_affected_current_0.OTA_0.OUT JNW_GR06_0.temp_affected_current_0.sky130_fd_pr__rf_pnp_05v5_W3p40L3p40_1.Emitter JNW_GR06_0.temp_affected_current_0.OTA_0.JNWATR_PCH_4C5F0_8.D JNW_GR06_0.temp_affected_current_0.OTA_0.JNWATR_PCH_4C5F0_8.D sky130_fd_pr__pfet_01v8 ad=0.528 pd=2.26 as=0.848 ps=4.26 w=1.6 l=0.94
X41 a_24320_9106# a_24536_7186# JNW_GR07_0.VSS sky130_fd_pr__res_high_po w=0.36 l=7.36
X42 JNW_GR06_0.OTA_0.JNWATR_PCH_4C5F0_8.D JNW_GR06_0.OTA_0.IN- JNW_GR06_0.OUT JNW_GR06_0.OTA_0.JNWATR_PCH_4C5F0_8.D sky130_fd_pr__pfet_01v8 ad=0.848 pd=4.26 as=0.528 ps=2.26 w=1.6 l=0.94
X43 JNW_GR06_0.temp_affected_current_0.JNWATR_PCH_4C5F0_12.G JNW_GR06_0.temp_affected_current_0.JNWATR_PCH_4C5F0_12.G JNW_GR06_0.VDD JNW_GR06_0.VDD sky130_fd_pr__pfet_01v8 ad=0.528 pd=2.26 as=0.848 ps=4.26 w=1.6 l=0.94
X44 a_5128_25678# a_4912_23758# JNW_GR07_0.VSS sky130_fd_pr__res_high_po w=0.36 l=7.36
X45 a_4696_32878# a_4912_30958# JNW_GR07_0.VSS sky130_fd_pr__res_high_po w=0.36 l=7.36
X46 a_3832_29278# a_3616_27358# JNW_GR07_0.VSS sky130_fd_pr__res_high_po w=0.36 l=7.36
X47 JNW_GR06_0.temp_affected_current_0.JNWATR_PCH_4C5F0_12.G JNW_GR06_0.temp_affected_current_0.JNWATR_PCH_4C5F0_12.G JNW_GR06_0.VDD JNW_GR06_0.VDD sky130_fd_pr__pfet_01v8 ad=0.528 pd=2.26 as=0.848 ps=4.26 w=1.6 l=0.94
X48 a_21026_19102# a_21242_17182# JNW_GR07_0.VSS sky130_fd_pr__res_high_po w=0.36 l=7.36
X49 JNW_GR07_0.x5.XA6.A JNW_GR07_0.x5.XA5.A JNW_GR07_0.VDD JNW_GR07_0.VDD sky130_fd_pr__pfet_01v8 ad=0.468 pd=2.84 as=0.468 ps=2.84 w=0.9 l=0.16
X50 a_4270_6320# a_4054_4400# JNW_GR07_0.VSS sky130_fd_pr__res_high_po w=0.36 l=7.36
X51 JNW_GR07_0.x11.I_OUT JNW_GR07_0.PWM JNW_GR07_0.VSS JNW_GR07_0.VSS sky130_fd_pr__nfet_01v8 ad=0.2784 pd=1.54 as=0.4704 ps=2.9 w=0.96 l=0.22
X52 JNW_GR07_0.x4.x5.G JNW_GR07_0.x4.x5.G JNW_GR07_0.VDD JNW_GR07_0.VDD sky130_fd_pr__pfet_01v8 ad=0.528 pd=2.26 as=0.848 ps=4.26 w=1.6 l=0.94
X53 a_8632_25678# a_8416_23758# JNW_GR07_0.VSS sky130_fd_pr__res_high_po w=0.36 l=7.36
X54 a_17328_36478# a_17544_34558# JNW_GR07_0.VSS sky130_fd_pr__res_high_po w=0.36 l=7.36
X55 JNW_GR07_0.VSS JNW_GR06_0.reset JNW_GR06_0.temp_affected_current_0.OUT JNW_GR07_0.VSS sky130_fd_pr__nfet_01v8 ad=0.4704 pd=2.9 as=0.2784 ps=1.54 w=0.96 l=0.22
X56 a_5992_32878# a_5776_30958# JNW_GR07_0.VSS sky130_fd_pr__res_high_po w=0.36 l=7.36
X57 JNW_GR07_0.VSS JNW_GR07_0.VSS JNW_GR07_0.x11.x3.D sky130_fd_pr__pnp_05v5_W3p40L3p40
**devattr s=462400,2720
X58 a_19056_32878# a_19272_30958# JNW_GR07_0.VSS sky130_fd_pr__res_high_po w=0.36 l=7.36
X59 JNW_GR07_0.x11.x.D JNW_GR07_0.x11.x2.A JNW_GR07_0.VDD JNW_GR07_0.VDD sky130_fd_pr__pfet_01v8 ad=0.528 pd=2.26 as=0.848 ps=4.26 w=1.6 l=0.94
X60 JNW_GR06_0.OTA_0.JNWATR_PCH_4C5F0_8.D JNW_GR06_0.temp_affected_current_0.OUT JNW_GR06_0.OTA_0.JNWATR_PCH_4C5F0_7.D JNW_GR06_0.OTA_0.JNWATR_PCH_4C5F0_8.D sky130_fd_pr__pfet_01v8 ad=0.848 pd=4.26 as=0.528 ps=2.26 w=1.6 l=0.94
X61 a_5128_29278# a_4912_27358# JNW_GR07_0.VSS sky130_fd_pr__res_high_po w=0.36 l=7.36
X62 a_5992_32878# a_6208_30958# JNW_GR07_0.VSS sky130_fd_pr__res_high_po w=0.36 l=7.36
X63 JNW_GR06_0.temp_affected_current_0.JNWATR_PCH_4C5F0_13.D JNW_GR06_0.temp_affected_current_0.JNWATR_PCH_4C5F0_13.D JNW_GR07_0.VSS JNW_GR07_0.VSS sky130_fd_pr__nfet_01v8 ad=0.528 pd=2.26 as=0.848 ps=4.26 w=1.6 l=0.94
X64 JNW_GR07_0.x5.D JNW_GR07_0.x3.MP1.G JNW_GR07_0.VSS JNW_GR07_0.VSS sky130_fd_pr__nfet_01v8 ad=0.468 pd=2.84 as=0.288 ps=1.54 w=0.9 l=0.16
X65 JNW_GR07_0.x11.amplifier_rev2_0.x5.G JNW_GR07_0.x11.amplifier_rev2_0.x5.G JNW_GR07_0.VDD JNW_GR07_0.VDD sky130_fd_pr__pfet_01v8 ad=0.528 pd=2.26 as=0.848 ps=4.26 w=1.6 l=0.94
X66 a_24340_12624# a_24556_10704# JNW_GR07_0.VSS sky130_fd_pr__res_high_po w=0.36 l=7.36
X67 JNW_GR07_0.PWM JNW_GR07_0.x5.QN JNW_GR07_0.VDD JNW_GR07_0.VDD sky130_fd_pr__pfet_01v8 ad=0.468 pd=2.84 as=0.468 ps=2.84 w=0.9 l=0.16
X68 JNW_GR07_0.VDD JNW_GR07_0.x11.amplifier_rev2_0.x5.G JNW_GR07_0.x11.amplifier_rev2_0.x5.G JNW_GR07_0.VDD sky130_fd_pr__pfet_01v8 ad=0.848 pd=4.26 as=0.528 ps=2.26 w=1.6 l=0.94
X69 a_23024_9106# a_23240_7186# JNW_GR07_0.VSS sky130_fd_pr__res_high_po w=0.36 l=7.36
X70 JNW_GR07_0.x11.amplifier_rev2_0.x5.G JNW_GR07_0.x11.amplifier_rev2_0.x5.G JNW_GR07_0.VDD JNW_GR07_0.VDD sky130_fd_pr__pfet_01v8 ad=0.528 pd=2.26 as=0.848 ps=4.26 w=1.6 l=0.94
X71 JNW_GR07_0.VDD JNW_GR07_0.x4.x5.G JNW_GR07_0.x4.x5.G JNW_GR07_0.VDD sky130_fd_pr__pfet_01v8 ad=0.848 pd=4.26 as=0.528 ps=2.26 w=1.6 l=0.94
X72 a_2554_9814# a_2770_7894# JNW_GR07_0.VSS sky130_fd_pr__res_high_po w=0.36 l=7.36
X73 a_5560_25678# a_5344_23758# JNW_GR07_0.VSS sky130_fd_pr__res_high_po w=0.36 l=7.36
X74 JNW_GR07_0.VSS JNW_GR07_0.VSS JNW_GR07_0.VSS JNW_GR07_0.VSS sky130_fd_pr__nfet_01v8 ad=0.468 pd=2.84 as=162.4304 ps=885.64001 w=0.9 l=0.16
X75 JNW_GR07_0.VSS JNW_GR07_0.PWM JNW_GR07_0.x11.I_OUT JNW_GR07_0.VSS sky130_fd_pr__nfet_01v8 ad=0.4704 pd=2.9 as=0.2784 ps=1.54 w=0.96 l=0.22
X76 JNW_GR06_0.temp_affected_current_0.OTA_0.OUT JNW_GR06_0.temp_affected_current_0.sky130_fd_pr__rf_pnp_05v5_W3p40L3p40_1.Emitter JNW_GR06_0.temp_affected_current_0.OTA_0.JNWATR_PCH_4C5F0_8.D JNW_GR06_0.temp_affected_current_0.OTA_0.JNWATR_PCH_4C5F0_8.D sky130_fd_pr__pfet_01v8 ad=0.528 pd=2.26 as=0.848 ps=4.26 w=1.6 l=0.94
X77 JNW_GR07_0.x4.x5.G JNW_GR07_0.x4.x5.G JNW_GR07_0.VDD JNW_GR07_0.VDD sky130_fd_pr__pfet_01v8 ad=0.528 pd=2.26 as=0.848 ps=4.26 w=1.6 l=0.94
X78 JNW_GR06_0.VDD JNW_GR06_0.temp_affected_current_0.JNWATR_PCH_4C5F0_12.G JNW_GR06_0.temp_affected_current_0.JNWATR_PCH_4C5F0_12.G JNW_GR06_0.VDD sky130_fd_pr__pfet_01v8 ad=0.848 pd=4.26 as=0.528 ps=2.26 w=1.6 l=0.94
X79 a_22600_33878# a_22816_31958# JNW_GR07_0.VSS sky130_fd_pr__res_high_po w=0.36 l=7.36
X80 a_3838_6320# a_4054_4400# JNW_GR07_0.VSS sky130_fd_pr__res_high_po w=0.36 l=7.36
X81 JNW_GR07_0.x5.QN JNW_GR07_0.x5.XA7.C JNW_GR07_0.x5.XA6.MP1.S JNW_GR07_0.VDD sky130_fd_pr__pfet_01v8 ad=0.468 pd=2.84 as=0.288 ps=1.54 w=0.9 l=0.16
X82 JNW_GR07_0.VSS JNW_GR07_0.VSS JNW_GR06_0.temp_affected_current_0.sky130_fd_pr__rf_pnp_05v5_W3p40L3p40_1.Emitter sky130_fd_pr__pnp_05v5_W3p40L3p40
**devattr s=462400,2720
X83 JNW_GR07_0.VDD JNW_GR07_0.x11.x2.A JNW_GR07_0.x11.x.D JNW_GR07_0.VDD sky130_fd_pr__pfet_01v8 ad=0.848 pd=4.26 as=0.528 ps=2.26 w=1.6 l=0.94
X84 JNW_GR07_0.VDD JNW_GR07_0.x11.amplifier_rev2_0.x5.G JNW_GR07_0.x11.amplifier_rev2_0.x5.G JNW_GR07_0.VDD sky130_fd_pr__pfet_01v8 ad=0.848 pd=4.26 as=0.528 ps=2.26 w=1.6 l=0.94
X85 a_4696_36478# a_4912_34558# JNW_GR07_0.VSS sky130_fd_pr__res_high_po w=0.36 l=7.36
X86 JNW_GR07_0.VDD JNW_GR07_0.x11.amplifier_rev2_0.x5.G JNW_GR07_0.x11.amplifier_rev2_0.x5.G JNW_GR07_0.VDD sky130_fd_pr__pfet_01v8 ad=0.848 pd=4.26 as=0.528 ps=2.26 w=1.6 l=0.94
X87 a_4302_13332# a_4518_11412# JNW_GR07_0.VSS sky130_fd_pr__res_high_po w=0.36 l=7.36
X88 a_5560_29278# a_5344_27358# JNW_GR07_0.VSS sky130_fd_pr__res_high_po w=0.36 l=7.36
X89 a_3400_32878# a_3616_30958# JNW_GR07_0.VSS sky130_fd_pr__res_high_po w=0.36 l=7.36
X90 JNW_GR07_0.VDD JNW_GR07_0.x4.x5.G JNW_GR07_0.x4.x5.G JNW_GR07_0.VDD sky130_fd_pr__pfet_01v8 ad=0.848 pd=4.26 as=0.528 ps=2.26 w=1.6 l=0.94
X91 JNW_GR07_0.x5.XA3.MN1.S JNW_GR07_0.x5.D JNW_GR07_0.VSS JNW_GR07_0.VSS sky130_fd_pr__nfet_01v8 ad=0.288 pd=1.54 as=0.468 ps=2.84 w=0.9 l=0.16
X92 JNW_GR07_0.VSS JNW_GR06_0.temp_affected_current_0.JNWATR_PCH_4C5F0_13.D JNW_GR06_0.temp_affected_current_0.JNWATR_PCH_4C5F0_13.D JNW_GR07_0.VSS sky130_fd_pr__nfet_01v8 ad=0.848 pd=4.26 as=0.528 ps=2.26 w=1.6 l=0.94
X93 JNW_GR06_0.temp_affected_current_0.JNWATR_PCH_4C5F0_13.D JNW_GR06_0.temp_affected_current_0.JNWATR_PCH_4C5F0_13.D JNW_GR07_0.VSS JNW_GR07_0.VSS sky130_fd_pr__nfet_01v8 ad=0.528 pd=2.26 as=0.848 ps=4.26 w=1.6 l=0.94
X94 a_10360_25678# a_10576_23758# JNW_GR07_0.VSS sky130_fd_pr__res_high_po w=0.36 l=7.36
X95 JNW_GR06_0.OTA_0.JNWTR_RPPO16_3.N a_21964_10704# JNW_GR07_0.VSS sky130_fd_pr__res_high_po w=0.36 l=7.36
X96 a_23024_9106# a_22808_7186# JNW_GR07_0.VSS sky130_fd_pr__res_high_po w=0.36 l=7.36
X97 JNW_GR06_0.OTA_0.JNWTR_RPPO16_3.P a_24988_10704# JNW_GR07_0.VSS sky130_fd_pr__res_high_po w=0.36 l=7.36
X98 a_2554_9814# a_2338_7894# JNW_GR07_0.VSS sky130_fd_pr__res_high_po w=0.36 l=7.36
X99 a_3406_6320# a_3622_4400# JNW_GR07_0.VSS sky130_fd_pr__res_high_po w=0.36 l=7.36
X100 a_5992_36478# a_5776_34558# JNW_GR07_0.VSS sky130_fd_pr__res_high_po w=0.36 l=7.36
X101 JNW_GR06_0.OUT JNW_GR06_0.OTA_0.IN- JNW_GR06_0.OTA_0.JNWATR_PCH_4C5F0_8.D JNW_GR06_0.OTA_0.JNWATR_PCH_4C5F0_8.D sky130_fd_pr__pfet_01v8 ad=0.528 pd=2.26 as=0.848 ps=4.26 w=1.6 l=0.94
X102 JNW_GR07_0.VSS JNW_GR07_0.x11.I_OUT sky130_fd_pr__cap_mim_m3_1 l=5 w=5
X103 JNW_GR07_0.x5.XA7.C JNW_GR07_0.VDD JNW_GR07_0.x5.XA1.MN1.S JNW_GR07_0.VSS sky130_fd_pr__nfet_01v8 ad=0.468 pd=2.84 as=0.288 ps=1.54 w=0.9 l=0.16
X104 a_19056_36478# a_19272_34558# JNW_GR07_0.VSS sky130_fd_pr__res_high_po w=0.36 l=7.36
X105 a_5992_36478# a_6208_34558# JNW_GR07_0.VSS sky130_fd_pr__res_high_po w=0.36 l=7.36
X106 a_4696_32878# a_4480_30958# JNW_GR07_0.VSS sky130_fd_pr__res_high_po w=0.36 l=7.36
X107 JNW_GR06_0.VDD JNW_GR06_0.temp_affected_current_0.JNWATR_PCH_4C5F0_12.G JNW_GR06_0.temp_affected_current_0.JNWATR_PCH_4C5F0_12.G JNW_GR06_0.VDD sky130_fd_pr__pfet_01v8 ad=0.848 pd=4.26 as=0.528 ps=2.26 w=1.6 l=0.94
X108 JNW_GR07_0.VDD JNW_GR07_0.x4.x5.G JNW_GR07_0.x4.x5.G JNW_GR07_0.VDD sky130_fd_pr__pfet_01v8 ad=0.848 pd=4.26 as=0.528 ps=2.26 w=1.6 l=0.94
X109 a_23876_5612# a_23660_3692# JNW_GR07_0.VSS sky130_fd_pr__res_high_po w=0.36 l=7.36
X110 JNW_GR06_0.VDD JNW_GR06_0.temp_affected_current_0.OTA_0.OUT JNW_GR06_0.temp_affected_current_0.OTA_0.IN+ JNW_GR06_0.VDD sky130_fd_pr__pfet_01v8 ad=0.848 pd=4.26 as=0.528 ps=2.26 w=1.6 l=0.94
X111 a_4264_25678# a_4048_23758# JNW_GR07_0.VSS sky130_fd_pr__res_high_po w=0.36 l=7.36
X112 a_1710_13332# a_1926_11412# JNW_GR07_0.VSS sky130_fd_pr__res_high_po w=0.36 l=7.36
X113 JNW_GR06_0.OTA_0.JNWATR_PCH_4C5F0_8.D JNW_GR06_0.OTA_0.IN- JNW_GR06_0.OUT JNW_GR06_0.OTA_0.JNWATR_PCH_4C5F0_8.D sky130_fd_pr__pfet_01v8 ad=0.848 pd=4.26 as=0.528 ps=2.26 w=1.6 l=0.94
X114 JNW_GR07_0.x11.amplifier_rev2_0.x5.D JNW_GR07_0.x11.x3.D JNW_GR07_0.x11.x2.A JNW_GR07_0.x11.amplifier_rev2_0.x5.D sky130_fd_pr__pfet_01v8 ad=0.848 pd=4.26 as=0.528 ps=2.26 w=1.6 l=0.94
X115 JNW_GR07_0.x11.x7.N a_11008_23758# JNW_GR07_0.VSS sky130_fd_pr__res_high_po w=0.36 l=7.36
X116 JNW_GR06_0.temp_affected_current_0.OTA_0.JNWATR_PCH_4C5F0_8.D JNW_GR06_0.temp_affected_current_0.OTA_0.IN+ JNW_GR06_0.temp_affected_current_0.OTA_0.JNWATR_PCH_4C5F0_7.D JNW_GR06_0.temp_affected_current_0.OTA_0.JNWATR_PCH_4C5F0_8.D sky130_fd_pr__pfet_01v8 ad=0.848 pd=4.26 as=0.528 ps=2.26 w=1.6 l=0.94
X117 a_22612_12624# a_22396_10704# JNW_GR07_0.VSS sky130_fd_pr__res_high_po w=0.36 l=7.36
X118 JNW_GR07_0.x5.XA4.MN1.S JNW_GR07_0.x5.XA6.A JNW_GR07_0.VSS JNW_GR07_0.VSS sky130_fd_pr__nfet_01v8 ad=0.288 pd=1.54 as=0.468 ps=2.84 w=0.9 l=0.16
X119 a_22600_37478# a_22816_35558# JNW_GR07_0.VSS sky130_fd_pr__res_high_po w=0.36 l=7.36
X120 a_2122_9814# a_2338_7894# JNW_GR07_0.VSS sky130_fd_pr__res_high_po w=0.36 l=7.36
X121 JNW_GR06_0.temp_affected_current_0.JNWATR_PCH_4C5F0_12.G JNW_GR06_0.temp_affected_current_0.JNWATR_PCH_4C5F0_12.G JNW_GR06_0.VDD JNW_GR06_0.VDD sky130_fd_pr__pfet_01v8 ad=0.528 pd=2.26 as=0.848 ps=4.26 w=1.6 l=0.94
X122 a_9928_25678# a_9712_23758# JNW_GR07_0.VSS sky130_fd_pr__res_high_po w=0.36 l=7.36
X123 JNW_GR07_0.x11.amplifier_rev2_0.x5.G JNW_GR07_0.x11.amplifier_rev2_0.x5.G JNW_GR07_0.VDD JNW_GR07_0.VDD sky130_fd_pr__pfet_01v8 ad=0.528 pd=2.26 as=0.848 ps=4.26 w=1.6 l=0.94
X124 a_23144_19118# a_22928_17198# JNW_GR07_0.VSS sky130_fd_pr__res_high_po w=0.36 l=7.36
X125 a_3406_6320# a_3190_4400# JNW_GR07_0.VSS sky130_fd_pr__res_high_po w=0.36 l=7.36
X126 JNW_GR06_0.temp_affected_current_0.OUT JNW_GR06_0.reset JNW_GR07_0.VSS JNW_GR07_0.VSS sky130_fd_pr__nfet_01v8 ad=0.2784 pd=1.54 as=0.4704 ps=2.9 w=0.96 l=0.22
X127 JNW_GR07_0.VDD JNW_GR07_0.x11.amplifier_rev2_0.x5.G JNW_GR07_0.x11.amplifier_rev2_0.x5.G JNW_GR07_0.VDD sky130_fd_pr__pfet_01v8 ad=0.848 pd=4.26 as=0.528 ps=2.26 w=1.6 l=0.94
X128 JNW_GR07_0.VSS JNW_GR07_0.x11.x2.A sky130_fd_pr__cap_mim_m3_1 l=5 w=5
X129 JNW_GR06_0.temp_affected_current_0.OTA_0.JNWATR_PCH_4C5F0_8.D JNW_GR06_0.temp_affected_current_0.OTA_0.IN+ JNW_GR06_0.temp_affected_current_0.OTA_0.JNWATR_PCH_4C5F0_7.D JNW_GR06_0.temp_affected_current_0.OTA_0.JNWATR_PCH_4C5F0_8.D sky130_fd_pr__pfet_01v8 ad=0.848 pd=4.26 as=0.528 ps=2.26 w=1.6 l=0.94
X130 a_3400_36478# a_3616_34558# JNW_GR07_0.VSS sky130_fd_pr__res_high_po w=0.36 l=7.36
X131 JNW_GR07_0.VSS JNW_GR07_0.x11.amplifier_rev2_0.JNWATR_PCH_4C5F0_14.D JNW_GR07_0.x11.x2.A JNW_GR07_0.VSS sky130_fd_pr__nfet_01v8 ad=0.848 pd=4.26 as=0.528 ps=2.26 w=1.6 l=0.94
X132 JNW_GR07_0.VSS JNW_GR07_0.x4.VOUT JNW_GR07_0.x3.MP1.G JNW_GR07_0.VSS sky130_fd_pr__nfet_01v8 ad=0.288 pd=1.54 as=0.468 ps=2.84 w=0.9 l=0.16
X133 a_4264_29278# a_4048_27358# JNW_GR07_0.VSS sky130_fd_pr__res_high_po w=0.36 l=7.36
X134 a_5128_32878# a_5344_30958# JNW_GR07_0.VSS sky130_fd_pr__res_high_po w=0.36 l=7.36
X135 a_22580_5612# a_22364_3692# JNW_GR07_0.VSS sky130_fd_pr__res_high_po w=0.36 l=7.36
X136 a_23476_12624# a_23692_10704# JNW_GR07_0.VSS sky130_fd_pr__res_high_po w=0.36 l=7.36
X137 JNW_GR06_0.temp_affected_current_0.OTA_0.JNWATR_PCH_4C5F0_8.D JNW_GR06_0.temp_affected_current_0.OTA_0.JNWTR_RPPO16_3.P JNW_GR06_0.VDD JNW_GR06_0.VDD sky130_fd_pr__pfet_01v8 ad=0.528 pd=2.26 as=0.848 ps=4.26 w=1.6 l=0.94
X138 JNW_GR06_0.temp_affected_current_0.JNWATR_PCH_4C5F0_12.G JNW_GR06_0.temp_affected_current_0.JNWATR_PCH_4C5F0_12.G JNW_GR06_0.VDD JNW_GR06_0.VDD sky130_fd_pr__pfet_01v8 ad=0.528 pd=2.26 as=0.848 ps=4.26 w=1.6 l=0.94
X139 JNW_GR06_0.VDD JNW_GR06_0.OTA_0.JNWTR_RPPO16_3.P JNW_GR06_0.OTA_0.JNWATR_PCH_4C5F0_8.D JNW_GR06_0.VDD sky130_fd_pr__pfet_01v8 ad=0.848 pd=4.26 as=0.528 ps=2.26 w=1.6 l=0.94
X140 JNW_GR06_0.temp_affected_current_0.JNWATR_PCH_4C5F0_12.G JNW_GR06_0.temp_affected_current_0.JNWATR_PCH_4C5F0_12.G JNW_GR06_0.VDD JNW_GR06_0.VDD sky130_fd_pr__pfet_01v8 ad=0.528 pd=2.26 as=0.848 ps=4.26 w=1.6 l=0.94
X141 JNW_GR06_0.temp_affected_current_0.JNWATR_PCH_4C5F0_13.D JNW_GR06_0.temp_affected_current_0.JNWATR_PCH_4C5F0_13.D JNW_GR07_0.VSS JNW_GR07_0.VSS sky130_fd_pr__nfet_01v8 ad=0.528 pd=2.26 as=0.848 ps=4.26 w=1.6 l=0.94
X142 JNW_GR06_0.OTA_0.JNWATR_PCH_4C5F0_7.D JNW_GR06_0.temp_affected_current_0.OUT JNW_GR06_0.OTA_0.JNWATR_PCH_4C5F0_8.D JNW_GR06_0.OTA_0.JNWATR_PCH_4C5F0_8.D sky130_fd_pr__pfet_01v8 ad=0.528 pd=2.26 as=0.848 ps=4.26 w=1.6 l=0.94
X143 a_22600_41078# a_22816_39158# JNW_GR07_0.VSS sky130_fd_pr__res_high_po w=0.36 l=7.36
X144 a_1678_6320# a_1894_4400# JNW_GR07_0.VSS sky130_fd_pr__res_high_po w=0.36 l=7.36
X145 a_19920_32878# a_19704_30958# JNW_GR07_0.VSS sky130_fd_pr__res_high_po w=0.36 l=7.36
X146 a_1690_9814# a_1906_7894# JNW_GR07_0.VSS sky130_fd_pr__res_high_po w=0.36 l=7.36
X147 a_4696_36478# a_4480_34558# JNW_GR07_0.VSS sky130_fd_pr__res_high_po w=0.36 l=7.36
X148 JNW_GR07_0.x4.VOUT JNW_GR07_0.x9.N JNW_GR07_0.x4.x5.D JNW_GR07_0.x4.x5.D sky130_fd_pr__pfet_01v8 ad=0.528 pd=2.26 as=0.848 ps=4.26 w=1.6 l=0.94
X149 a_9064_25678# a_8848_23758# JNW_GR07_0.VSS sky130_fd_pr__res_high_po w=0.36 l=7.36
X150 JNW_GR07_0.VDD JNW_GR07_0.x11.amplifier_rev2_0.x5.G JNW_GR07_0.x11.amplifier_rev2_0.x5.G JNW_GR07_0.VDD sky130_fd_pr__pfet_01v8 ad=0.848 pd=4.26 as=0.528 ps=2.26 w=1.6 l=0.94
X151 JNW_GR07_0.VSS JNW_GR07_0.x11.amplifier_rev2_0.JNWATR_PCH_4C5F0_14.D JNW_GR07_0.x11.x2.A JNW_GR07_0.VSS sky130_fd_pr__nfet_01v8 ad=0.848 pd=4.26 as=0.528 ps=2.26 w=1.6 l=0.94
X152 JNW_GR07_0.VDD JNW_GR07_0.x11.amplifier_rev2_0.x5.G JNW_GR07_0.x11.amplifier_rev2_0.x5.G JNW_GR07_0.VDD sky130_fd_pr__pfet_01v8 ad=0.848 pd=4.26 as=0.528 ps=2.26 w=1.6 l=0.94
X153 JNW_GR07_0.x4.x5.D JNW_GR07_0.x4.x5.G JNW_GR07_0.VDD JNW_GR07_0.VDD sky130_fd_pr__pfet_01v8 ad=0.528 pd=2.26 as=0.848 ps=4.26 w=1.6 l=0.94
X154 JNW_GR07_0.VDD JNW_GR07_0.x4.x5.G JNW_GR07_0.x4.x5.G JNW_GR07_0.VDD sky130_fd_pr__pfet_01v8 ad=0.848 pd=4.26 as=0.528 ps=2.26 w=1.6 l=0.94
X155 JNW_GR07_0.x5.XA7.C JNW_GR07_0.CLK JNW_GR07_0.VDD JNW_GR07_0.VDD sky130_fd_pr__pfet_01v8 ad=0.288 pd=1.54 as=0.468 ps=2.84 w=0.9 l=0.16
X156 JNW_GR06_0.OTA_0.JNWATR_PCH_4C5F0_8.D JNW_GR06_0.temp_affected_current_0.OUT JNW_GR06_0.OTA_0.JNWATR_PCH_4C5F0_7.D JNW_GR06_0.OTA_0.JNWATR_PCH_4C5F0_8.D sky130_fd_pr__pfet_01v8 ad=0.848 pd=4.26 as=0.528 ps=2.26 w=1.6 l=0.94
X157 a_2110_6320# a_1894_4400# JNW_GR07_0.VSS sky130_fd_pr__res_high_po w=0.36 l=7.36
X158 JNW_GR07_0.x4.x5.D JNW_GR07_0.x11.I_OUT JNW_GR07_0.x4.JNWATR_PCH_4C5F0_14.D JNW_GR07_0.x4.x5.D sky130_fd_pr__pfet_01v8 ad=0.848 pd=4.26 as=0.528 ps=2.26 w=1.6 l=0.94
X159 JNW_GR06_0.OUT JNW_GR06_0.OTA_0.JNWATR_PCH_4C5F0_7.D JNW_GR07_0.VSS JNW_GR07_0.VSS sky130_fd_pr__nfet_01v8 ad=0.528 pd=2.26 as=0.848 ps=4.26 w=1.6 l=0.94
X160 a_17760_32878# a_17976_30958# JNW_GR07_0.VSS sky130_fd_pr__res_high_po w=0.36 l=7.36
X161 a_3438_13332# a_3654_11412# JNW_GR07_0.VSS sky130_fd_pr__res_high_po w=0.36 l=7.36
X162 a_16884_8848# a_16668_6928# JNW_GR07_0.VSS sky130_fd_pr__res_high_po w=0.36 l=7.36
X163 JNW_GR07_0.VSS JNW_GR06_0.temp_affected_current_0.JNWATR_PCH_4C5F0_13.D JNW_GR06_0.temp_affected_current_0.JNWATR_PCH_4C5F0_13.D JNW_GR07_0.VSS sky130_fd_pr__nfet_01v8 ad=0.848 pd=4.26 as=0.528 ps=2.26 w=1.6 l=0.94
X164 JNW_GR07_0.x4.VOUT JNW_GR07_0.x4.JNWATR_PCH_4C5F0_14.D JNW_GR07_0.VSS JNW_GR07_0.VSS sky130_fd_pr__nfet_01v8 ad=0.528 pd=2.26 as=0.848 ps=4.26 w=1.6 l=0.94
X165 a_22148_5612# a_22364_3692# JNW_GR07_0.VSS sky130_fd_pr__res_high_po w=0.36 l=7.36
X166 JNW_GR07_0.x5.XA7.MP1.S JNW_GR07_0.PWM JNW_GR07_0.x5.XA7.MN0.S JNW_GR07_0.VSS sky130_fd_pr__nfet_01v8 ad=0.288 pd=1.54 as=0.288 ps=1.54 w=0.9 l=0.16
X167 JNW_GR06_0.VDD JNW_GR06_0.temp_affected_current_0.JNWATR_PCH_4C5F0_12.G JNW_GR06_0.temp_affected_current_0.JNWATR_PCH_4C5F0_12.G JNW_GR06_0.VDD sky130_fd_pr__pfet_01v8 ad=0.848 pd=4.26 as=0.528 ps=2.26 w=1.6 l=0.94
X168 a_24340_12624# a_24124_10704# JNW_GR07_0.VSS sky130_fd_pr__res_high_po w=0.36 l=7.36
X169 JNW_GR06_0.VDD JNW_GR06_0.temp_affected_current_0.JNWATR_PCH_4C5F0_12.G JNW_GR06_0.temp_affected_current_0.JNWATR_PCH_4C5F0_12.G JNW_GR06_0.VDD sky130_fd_pr__pfet_01v8 ad=0.848 pd=4.26 as=0.528 ps=2.26 w=1.6 l=0.94
X170 JNW_GR06_0.temp_affected_current_0.OTA_0.JNWTR_RPPO16_3.P JNW_GR06_0.temp_affected_current_0.OTA_0.JNWTR_RPPO16_3.P JNW_GR06_0.VDD JNW_GR06_0.VDD sky130_fd_pr__pfet_01v8 ad=0.528 pd=2.26 as=0.848 ps=4.26 w=1.6 l=0.94
X171 a_1678_6320# a_1462_4400# JNW_GR07_0.VSS sky130_fd_pr__res_high_po w=0.36 l=7.36
X172 JNW_GR06_0.OTA_0.JNWATR_PCH_4C5F0_7.D JNW_GR06_0.OTA_0.JNWATR_PCH_4C5F0_7.D JNW_GR07_0.VSS JNW_GR07_0.VSS sky130_fd_pr__nfet_01v8 ad=0.528 pd=2.26 as=0.848 ps=4.26 w=1.6 l=0.94
X173 a_4282_9814# a_4066_7894# JNW_GR07_0.VSS sky130_fd_pr__res_high_po w=0.36 l=7.36
X174 JNW_GR07_0.VDD JNW_GR07_0.x4.x5.G JNW_GR07_0.x4.x5.D JNW_GR07_0.VDD sky130_fd_pr__pfet_01v8 ad=0.848 pd=4.26 as=0.528 ps=2.26 w=1.6 l=0.94
X175 JNW_GR06_0.VDD JNW_GR06_0.OTA_0.JNWTR_RPPO16_3.P JNW_GR06_0.OTA_0.JNWTR_RPPO16_3.P JNW_GR06_0.VDD sky130_fd_pr__pfet_01v8 ad=0.848 pd=4.26 as=0.528 ps=2.26 w=1.6 l=0.94
X176 JNW_GR07_0.x5.D JNW_GR07_0.x3.MP1.G JNW_GR07_0.VDD JNW_GR07_0.VDD sky130_fd_pr__pfet_01v8 ad=0.468 pd=2.84 as=0.288 ps=1.54 w=0.9 l=0.16
X177 JNW_GR07_0.VDD JNW_GR07_0.x4.x5.G JNW_GR07_0.x4.x5.G JNW_GR07_0.VDD sky130_fd_pr__pfet_01v8 ad=0.848 pd=4.26 as=0.528 ps=2.26 w=1.6 l=0.94
X178 a_16884_8848# a_17100_6928# JNW_GR07_0.VSS sky130_fd_pr__res_high_po w=0.36 l=7.36
X179 a_5128_36478# a_5344_34558# JNW_GR07_0.VSS sky130_fd_pr__res_high_po w=0.36 l=7.36
X180 JNW_GR07_0.VSS JNW_GR06_0.temp_affected_current_0.JNWATR_PCH_4C5F0_13.D JNW_GR06_0.temp_affected_current_0.JNWATR_PCH_4C5F0_12.G JNW_GR07_0.VSS sky130_fd_pr__nfet_01v8 ad=0.848 pd=4.26 as=0.528 ps=2.26 w=1.6 l=0.94
X181 JNW_GR07_0.x5.XA6.A JNW_GR07_0.x5.XA5.A JNW_GR07_0.VSS JNW_GR07_0.VSS sky130_fd_pr__nfet_01v8 ad=0.468 pd=2.84 as=0.468 ps=2.84 w=0.9 l=0.16
X182 JNW_GR07_0.x4.VOUT JNW_GR07_0.x4.JNWATR_PCH_4C5F0_14.D JNW_GR07_0.VSS JNW_GR07_0.VSS sky130_fd_pr__nfet_01v8 ad=0.528 pd=2.26 as=0.848 ps=4.26 w=1.6 l=0.94
X183 a_3832_32878# a_4048_30958# JNW_GR07_0.VSS sky130_fd_pr__res_high_po w=0.36 l=7.36
X184 JNW_GR06_0.OUT JNW_GR06_0.OTA_0.IN- JNW_GR06_0.OTA_0.JNWATR_PCH_4C5F0_8.D JNW_GR06_0.OTA_0.JNWATR_PCH_4C5F0_8.D sky130_fd_pr__pfet_01v8 ad=0.528 pd=2.26 as=0.848 ps=4.26 w=1.6 l=0.94
X185 a_22600_33878# a_22384_31958# JNW_GR07_0.VSS sky130_fd_pr__res_high_po w=0.36 l=7.36
X186 JNW_GR07_0.VSS a_21932_3692# JNW_GR07_0.VSS sky130_fd_pr__res_high_po w=0.36 l=7.36
X187 JNW_GR06_0.temp_affected_current_0.OTA_0.JNWATR_PCH_4C5F0_7.D JNW_GR06_0.temp_affected_current_0.OTA_0.IN+ JNW_GR06_0.temp_affected_current_0.OTA_0.JNWATR_PCH_4C5F0_8.D JNW_GR06_0.temp_affected_current_0.OTA_0.JNWATR_PCH_4C5F0_8.D sky130_fd_pr__pfet_01v8 ad=0.528 pd=2.26 as=0.848 ps=4.26 w=1.6 l=0.94
X188 a_22180_12624# a_22396_10704# JNW_GR07_0.VSS sky130_fd_pr__res_high_po w=0.36 l=7.36
X189 JNW_GR06_0.temp_affected_current_0.OTA_0.JNWATR_PCH_4C5F0_8.D JNW_GR06_0.temp_affected_current_0.sky130_fd_pr__rf_pnp_05v5_W3p40L3p40_1.Emitter JNW_GR06_0.temp_affected_current_0.OTA_0.OUT JNW_GR06_0.temp_affected_current_0.OTA_0.JNWATR_PCH_4C5F0_8.D sky130_fd_pr__pfet_01v8 ad=0.848 pd=4.26 as=0.528 ps=2.26 w=1.6 l=0.94
X190 a_19920_36478# a_19704_34558# JNW_GR07_0.VSS sky130_fd_pr__res_high_po w=0.36 l=7.36
X191 JNW_GR07_0.VSS JNW_GR07_0.x11.I_OUT sky130_fd_pr__cap_mim_m3_1 l=5 w=5
X192 JNW_GR07_0.x5.XA7.CN JNW_GR07_0.x5.XA7.C JNW_GR07_0.VDD JNW_GR07_0.VDD sky130_fd_pr__pfet_01v8 ad=0.468 pd=2.84 as=0.468 ps=2.84 w=0.9 l=0.16
X193 JNW_GR07_0.x11.x3.D JNW_GR07_0.x11.x2.A JNW_GR07_0.VDD JNW_GR07_0.VDD sky130_fd_pr__pfet_01v8 ad=0.528 pd=2.26 as=0.848 ps=4.26 w=1.6 l=0.94
X194 a_19920_32878# a_20136_30958# JNW_GR07_0.VSS sky130_fd_pr__res_high_po w=0.36 l=7.36
X195 a_24320_9106# a_24104_7186# JNW_GR07_0.VSS sky130_fd_pr__res_high_po w=0.36 l=7.36
X196 a_18624_32878# a_18408_30958# JNW_GR07_0.VSS sky130_fd_pr__res_high_po w=0.36 l=7.36
X197 JNW_GR07_0.x11.amplifier_rev2_0.x5.G JNW_GR07_0.x11.amplifier_rev2_0.x5.G JNW_GR07_0.VDD JNW_GR07_0.VDD sky130_fd_pr__pfet_01v8 ad=0.528 pd=2.26 as=0.848 ps=4.26 w=1.6 l=0.94
X198 JNW_GR06_0.VDD JNW_GR06_0.temp_affected_current_0.OTA_0.OUT JNW_GR06_0.temp_affected_current_0.sky130_fd_pr__rf_pnp_05v5_W3p40L3p40_1.Emitter JNW_GR06_0.VDD sky130_fd_pr__pfet_01v8 ad=0.848 pd=4.26 as=0.528 ps=2.26 w=1.6 l=0.94
X199 JNW_GR06_0.OTA_0.JNWATR_PCH_4C5F0_8.D JNW_GR06_0.temp_affected_current_0.OUT JNW_GR06_0.OTA_0.JNWATR_PCH_4C5F0_7.D JNW_GR06_0.OTA_0.JNWATR_PCH_4C5F0_8.D sky130_fd_pr__pfet_01v8 ad=0.848 pd=4.26 as=0.528 ps=2.26 w=1.6 l=0.94
X200 a_3850_9814# a_3634_7894# JNW_GR07_0.VSS sky130_fd_pr__res_high_po w=0.36 l=7.36
X201 JNW_GR06_0.temp_affected_current_0.JNWATR_PCH_4C5F0_12.G JNW_GR06_0.temp_affected_current_0.JNWATR_PCH_4C5F0_12.G JNW_GR06_0.VDD JNW_GR06_0.VDD sky130_fd_pr__pfet_01v8 ad=0.528 pd=2.26 as=0.848 ps=4.26 w=1.6 l=0.94
X202 a_3400_32878# a_3184_30958# JNW_GR07_0.VSS sky130_fd_pr__res_high_po w=0.36 l=7.36
X203 JNW_GR07_0.x11.amplifier_rev2_0.x5.G JNW_GR07_0.x11.amplifier_rev2_0.x5.G JNW_GR07_0.VDD JNW_GR07_0.VDD sky130_fd_pr__pfet_01v8 ad=0.528 pd=2.26 as=0.848 ps=4.26 w=1.6 l=0.94